
 *******************************************************************************

         NASA-GLENN CHEMICAL EQUILIBRIUM PROGRAM CEA2, MAY 21, 2004
                   BY  BONNIE MCBRIDE AND SANFORD GORDON
      REFS: NASA RP-1311, PART I, 1994 AND NASA RP-1311, PART II, 1996

 *******************************************************************************



 problem   case=MonoN2O
     rocket  frozen  nfz=1  tcest,k=3800
   p,bar=5,
   pi/p=5.25,
   sup,ae/at=1.45,
 react
   oxid=N2O moles=1  t,k=298
 output    trace=
     plot t
  end

 OPTIONS: TP=F  HP=F  SP=F  TV=F  UV=F  SV=F  DETN=F  SHOCK=F  REFL=F  INCD=F
 RKT=T  FROZ=T  EQL=F  IONS=F  SIUNIT=T  DEBUGF=F  SHKDBG=F  DETDBG=F  TRNSPT=F

 TRACE= 0.00E+00  S/R= 0.000000E+00  H/R= 0.000000E+00  U/R= 0.000000E+00

 Pc,BAR =     5.000000

 Pc/P =     5.2500

 SUBSONIC AREA RATIOS =

 SUPERSONIC AREA RATIOS =     1.4500

 NFZ=  1  Mdot/Ac= 0.000000E+00  Ac/At= 0.000000E+00
