
 *******************************************************************************

         NASA-GLENN CHEMICAL EQUILIBRIUM PROGRAM CEA2, MAY 21, 2004
                   BY  BONNIE MCBRIDE AND SANFORD GORDON
      REFS: NASA RP-1311, PART I, 1994 AND NASA RP-1311, PART II, 1996

 *******************************************************************************



 problem
     det   t,k=298,  p,atm=1,
 react
   fuel=H2 moles=1  t,k=298
   oxid=O2 moles=0.5  t,k=298
 only
   H2O
 end

 OPTIONS: TP=F  HP=F  SP=F  TV=F  UV=F  SV=F  DETN=T  SHOCK=F  REFL=F  INCD=F
 RKT=F  FROZ=F  EQL=F  IONS=F  SIUNIT=T  DEBUGF=F  SHKDBG=F  DETDBG=F  TRNSPT=F

 T,K =   298.0000

 TRACE= 0.00E+00  S/R= 0.000000E+00  H/R= 0.000000E+00  U/R= 0.000000E+00

 P,BAR =     1.013250

    REACTANT           MOLES    (ENERGY/R),K   TEMP,K  DENSITY
        EXPLODED FORMULA
 F: H2               1.000000  -0.520220E+00   298.00  0.0000
          H  2.00000
 O: O2               0.500000  -0.530002E+00   298.00  0.0000
          O  2.00000

  SPECIES BEING CONSIDERED IN THIS SYSTEM
 (CONDENSED PHASE MAY HAVE NAME LISTED SEVERAL TIMES)
  LAST thermo.inp UPDATE:    9/09/04

  g 8/89  H2O            

 O/F =   7.936683

                       EFFECTIVE FUEL     EFFECTIVE OXIDANT        MIXTURE
 ENTHALPY                  h(2)/R              h(1)/R               h0/R
 (KG-MOL)(K)/KG       -0.25806109E+00     -0.16563198E-01     -0.43586412E-01

 KG-FORM.WT./KG             bi(2)               bi(1)               b0i
  H                    0.99212255E+00      0.00000000E+00      0.11101687E+00
  O                    0.00000000E+00      0.62502344E-01      0.55508435E-01

 POINT ITN      T            H           O 

 SINGULAR MATRIX, ITERATION  1  VARIABLE  2(EQLBRM)

 SINGULAR MATRIX, ITERATION  2  VARIABLE  2(EQLBRM)

 SINGULAR MATRIX, ITERATION  3  VARIABLE  2(EQLBRM)

 SINGULAR MATRIX, ITERATION  4  VARIABLE  2(EQLBRM)

 WARNING!! POINT  1 USES A REDUCED SET OF COMPONENTS
 SPECIES CONTAINING THE ELIMINATED COMPONENT ARE OMITTED.
 IT MAY BE NECESSARY TO RERUN WITH INSERTED CONDENSED SPECIES
 CONTAINING COMPONENT       O (EQLBRM)

 POINT ITN      T          H2O         
   1    9    5610.723     -35.379

 POINT ITN      T            H           O 

 SINGULAR MATRIX, ITERATION  1  VARIABLE  2(EQLBRM)

 SINGULAR MATRIX, ITERATION  2  VARIABLE  2(EQLBRM)

 SINGULAR MATRIX, ITERATION  3  VARIABLE  2(EQLBRM)

 SINGULAR MATRIX, ITERATION  4  VARIABLE  2(EQLBRM)

 WARNING!! POINT  1 USES A REDUCED SET OF COMPONENTS
 SPECIES CONTAINING THE ELIMINATED COMPONENT ARE OMITTED.
 IT MAY BE NECESSARY TO RERUN WITH INSERTED CONDENSED SPECIES
 CONTAINING COMPONENT       O (EQLBRM)
   1    5    6032.647     -34.964

 POINT ITN      T            H           O 

 SINGULAR MATRIX, ITERATION  1  VARIABLE  2(EQLBRM)

 SINGULAR MATRIX, ITERATION  2  VARIABLE  2(EQLBRM)

 SINGULAR MATRIX, ITERATION  3  VARIABLE  2(EQLBRM)

 SINGULAR MATRIX, ITERATION  4  VARIABLE  2(EQLBRM)

 WARNING!! POINT  1 USES A REDUCED SET OF COMPONENTS
 SPECIES CONTAINING THE ELIMINATED COMPONENT ARE OMITTED.
 IT MAY BE NECESSARY TO RERUN WITH INSERTED CONDENSED SPECIES
 CONTAINING COMPONENT       O (EQLBRM)
   1    5    6033.677     -34.961


                     DETONATION PROPERTIES OF AN IDEAL REACTING GAS
 CASE =                

             REACTANT                       MOLES         ENERGY      TEMP
                                                         KJ/KG-MOL      K
 FUEL        H2                           1.0000000        -4.325    298.000
 OXIDANT     O2                           0.5000000        -4.407    298.000

 O/F=    7.93668  %FUEL= 11.189834  R,EQ.RATIO= 1.000000  PHI,EQ.RATIO= 1.000000

 UNBURNED GAS

 P1, BAR           1.0132
 T1, K             298.00
 H1, KJ/KG           0.00
 M1, (1/n)         12.010
 GAMMA1            1.4016
 SON VEL1,M/SEC     537.7

 BURNED GAS

 P, BAR            25.057
 T, K             6033.68
 RHO, KG/CU M    8.9980-1
 H, KJ/KG         3783.66
 U, KJ/KG          998.96
 G, KJ/KG        -97355.9
 S, KJ/(KG)(K)    16.7625

 M, (1/n)          18.015
 (dLV/dLP)t      -1.00000
 (dLV/dLT)p        1.0000
 Cp, KJ/(KG)(K)    3.4723
 GAMMAs            1.1533
 SON VEL,M/SEC     1792.1

 DETONATION PARAMETERS

 P/P1              24.729
 T/T1              20.247
 M/M1              1.5000
 RHO/RHO1          1.8320
 DET MACH NUMBER   6.1055
 DET VEL,M/SEC     3283.1

 MOLE FRACTIONS

 H2O              1.00000

  * THERMODYNAMIC PROPERTIES FITTED TO 20000.K

    PRODUCTS WHICH WERE CONSIDERED BUT WHOSE MOLE FRACTIONS
    WERE LESS THAN 5.000000E-06 FOR ALL ASSIGNED CONDITIONS





