
 *******************************************************************************

         NASA-GLENN CHEMICAL EQUILIBRIUM PROGRAM CEA2, MAY 21, 2004
                   BY  BONNIE MCBRIDE AND SANFORD GORDON
      REFS: NASA RP-1311, PART I, 1994 AND NASA RP-1311, PART II, 1996

 *******************************************************************************



 problem    phi,eq.ratio=0.6,0.8,1,1.2,1.4,
     det   t,k=298.15,  p,atm=1,
 react
   fuel=H2 t,k=298.15
   oxid=O2 t,k=298.15
 output    trace=
     plot u
 end

 OPTIONS: TP=F  HP=F  SP=F  TV=F  UV=F  SV=F  DETN=T  SHOCK=F  REFL=F  INCD=F
 RKT=F  FROZ=F  EQL=F  IONS=F  SIUNIT=T  DEBUGF=F  SHKDBG=F  DETDBG=F  TRNSPT=F

 T,K =   298.1500

 TRACE= 0.00E+00  S/R= 0.000000E+00  H/R= 0.000000E+00  U/R= 0.000000E+00

 P,BAR =     1.013250

 WARNING!!  AMOUNT MISSING FOR REACTANT  1.
 PROGRAM SETS WEIGHT PERCENT = 100. (REACT)

 WARNING!!  AMOUNT MISSING FOR REACTANT  2.
 PROGRAM SETS WEIGHT PERCENT = 100. (REACT)

    REACTANT          WT.FRAC   (ENERGY/R),K   TEMP,K  DENSITY
        EXPLODED FORMULA
 F: H2               1.000000  -0.326752E-06   298.15  0.0000
          H  2.00000
 O: O2               1.000000  -0.154035E-05   298.15  0.0000
          O  2.00000

  SPECIES BEING CONSIDERED IN THIS SYSTEM
 (CONDENSED PHASE MAY HAVE NAME LISTED SEVERAL TIMES)
  LAST thermo.inp UPDATE:    9/09/04

  g 6/97  *H               g 4/02  HO2              tpis78  *H2            
  g 8/89  H2O              g 6/99  H2O2             g 5/97  *O             
  g 4/02  *OH              tpis89  *O2              g 8/01  O3             
  g11/99  H2O(cr)          g 8/01  H2O(L)           g 8/01  H2O(L)         

 O/F =  13.227805

                       EFFECTIVE FUEL     EFFECTIVE OXIDANT        MIXTURE
 ENTHALPY                  h(2)/R              h(1)/R               h0/R
 (KG-MOL)(K)/KG       -0.16208918E-06     -0.48137850E-07     -0.56146909E-07

 KG-FORM.WT./KG             bi(2)               bi(1)               b0i
  *H                   0.99212255E+00      0.00000000E+00      0.69731246E-01
  *O                   0.00000000E+00      0.62502344E-01      0.58109372E-01

 POINT ITN      T            H           O 
   1    8    3486.327     -10.785     -14.913

 POINT ITN      T            H           O 
   1    3    3514.670     -10.719     -14.841

 POINT ITN      T            H           O 
   1    3    3546.496     -10.702     -14.858

 POINT ITN      T            H           O 
   1    2    3545.776     -10.702     -14.858


                     DETONATION PROPERTIES OF AN IDEAL REACTING GAS
 CASE =                

             REACTANT                    WT FRACTION      ENERGY      TEMP
                                          (SEE NOTE)     KJ/KG-MOL      K  
 FUEL        H2                           1.0000000         0.000    298.150
 OXIDANT     O2                           1.0000000         0.000    298.150

 O/F=   13.22780  %FUEL=  7.028491  R,EQ.RATIO= 0.600000  PHI,EQ.RATIO= 0.600000

 UNBURNED GAS

 P1, BAR           1.0132
 T1, K             298.15
 H1, KJ/KG           0.00
 M1, (1/n)         15.644
 GAMMA1            1.4003
 SON VEL1,M/SEC     471.1

 BURNED GAS

 P, BAR            18.379
 T, K             3545.78
 RHO, KG/CU M    1.1745 0
 H, KJ/KG         2097.10
 U, KJ/KG          532.34
 G, KJ/KG        -47454.8
 S, KJ/(KG)(K)    13.9749

 M, (1/n)          18.841
 (dLV/dLP)t      -1.05532
 (dLV/dLT)p        1.9668
 Cp, KJ/(KG)(K)   10.0607
 GAMMAs            1.1291
 SON VEL,M/SEC     1329.2

 DETONATION PARAMETERS

 P/P1              18.138
 T/T1              11.893
 M/M1              1.2043
 RHO/RHO1          1.8368
 DET MACH NUMBER   5.1830
 DET VEL,M/SEC     2441.5

 MOLE FRACTIONS

 *H               0.03651
 HO2              0.00043
 *H2              0.05707
 H2O              0.50049
 H2O2             0.00003
 *O               0.05585
 *OH              0.16168
 *O2              0.18794

  * THERMODYNAMIC PROPERTIES FITTED TO 20000.K

    PRODUCTS WHICH WERE CONSIDERED BUT WHOSE MOLE FRACTIONS
    WERE LESS THAN 5.000000E-06 FOR ALL ASSIGNED CONDITIONS

 O3              H2O(cr)         H2O(L)         

 NOTE. WEIGHT FRACTION OF FUEL IN TOTAL FUELS AND OF OXIDANT IN TOTAL OXIDANTS

 O/F =   9.920853

                       EFFECTIVE FUEL     EFFECTIVE OXIDANT        MIXTURE
 ENTHALPY                  h(2)/R              h(1)/R               h0/R
 (KG-MOL)(K)/KG        0.00000000E+00      0.00000000E+00      0.00000000E+00

 KG-FORM.WT./KG             bi(2)               bi(1)               b0i
  *H                   0.99212255E+00      0.00000000E+00      0.90846613E-01
  *O                   0.00000000E+00      0.62502344E-01      0.56779133E-01

 POINT ITN      T            H           O 
   1    6    3576.650     -10.522     -15.306

 POINT ITN      T            H           O 
   1    3    3604.599     -10.448     -15.225

 POINT ITN      T            H           O 
   1    3    3644.588     -10.435     -15.241

 POINT ITN      T            H           O 
   1    2    3643.454     -10.435     -15.241


                     DETONATION PROPERTIES OF AN IDEAL REACTING GAS
 CASE =                

             REACTANT                    WT FRACTION      ENERGY      TEMP
                                          (SEE NOTE)     KJ/KG-MOL      K  
 FUEL        H2                           1.0000000         0.000    298.150
 OXIDANT     O2                           1.0000000         0.000    298.150

 O/F=    9.92085  %FUEL=  9.156794  R,EQ.RATIO= 0.800000  PHI,EQ.RATIO= 0.800000

 UNBURNED GAS

 P1, BAR           1.0132
 T1, K             298.15
 H1, KJ/KG           0.00
 M1, (1/n)         13.548
 GAMMA1            1.4011
 SON VEL1,M/SEC     506.3

 BURNED GAS

 P, BAR            18.824
 T, K             3643.45
 RHO, KG/CU M    1.0180 0
 H, KJ/KG         2483.02
 U, KJ/KG          633.91
 G, KJ/KG        -54933.6
 S, KJ/(KG)(K)    15.7588

 M, (1/n)          16.383
 (dLV/dLP)t      -1.07403
 (dLV/dLT)p        2.2430
 Cp, KJ/(KG)(K)   13.5895
 GAMMAs            1.1285
 SON VEL,M/SEC     1444.6

 DETONATION PARAMETERS

 P/P1              18.578
 T/T1              12.220
 M/M1              1.2093
 RHO/RHO1          1.8384
 DET MACH NUMBER   5.2450
 DET VEL,M/SEC     2655.7

 MOLE FRACTIONS

 *H               0.06039
 HO2              0.00030
 *H2              0.10509
 H2O              0.52821
 H2O2             0.00003
 *O               0.04966
 *OH              0.16098
 *O2              0.09534

  * THERMODYNAMIC PROPERTIES FITTED TO 20000.K

    PRODUCTS WHICH WERE CONSIDERED BUT WHOSE MOLE FRACTIONS
    WERE LESS THAN 5.000000E-06 FOR ALL ASSIGNED CONDITIONS

 O3              H2O(cr)         H2O(L)         

 NOTE. WEIGHT FRACTION OF FUEL IN TOTAL FUELS AND OF OXIDANT IN TOTAL OXIDANTS

 O/F =   7.936683

                       EFFECTIVE FUEL     EFFECTIVE OXIDANT        MIXTURE
 ENTHALPY                  h(2)/R              h(1)/R               h0/R
 (KG-MOL)(K)/KG        0.00000000E+00      0.00000000E+00      0.00000000E+00

 KG-FORM.WT./KG             bi(2)               bi(1)               b0i
  *H                   0.99212255E+00      0.00000000E+00      0.11101687E+00
  *O                   0.00000000E+00      0.62502344E-01      0.55508435E-01

 POINT ITN      T            H           O 
   1    6    3606.516     -10.317     -15.686

 POINT ITN      T            H           O 
   1    3    3634.477     -10.234     -15.608

 POINT ITN      T            H           O 
   1    3    3678.061     -10.230     -15.610

 POINT ITN      T            H           O 
   1    2    3676.760     -10.230     -15.610


                     DETONATION PROPERTIES OF AN IDEAL REACTING GAS
 CASE =                

             REACTANT                    WT FRACTION      ENERGY      TEMP
                                          (SEE NOTE)     KJ/KG-MOL      K  
 FUEL        H2                           1.0000000         0.000    298.150
 OXIDANT     O2                           1.0000000         0.000    298.150

 O/F=    7.93668  %FUEL= 11.189834  R,EQ.RATIO= 1.000000  PHI,EQ.RATIO= 1.000000

 UNBURNED GAS

 P1, BAR           1.0132
 T1, K             298.15
 H1, KJ/KG           0.00
 M1, (1/n)         12.010
 GAMMA1            1.4016
 SON VEL1,M/SEC     537.9

 BURNED GAS

 P, BAR            19.026
 T, K             3676.76
 RHO, KG/CU M    9.0260-1
 H, KJ/KG         2832.48
 U, KJ/KG          724.57
 G, KJ/KG        -61208.9
 S, KJ/(KG)(K)    17.4179

 M, (1/n)          14.503
 (dLV/dLP)t      -1.08186
 (dLV/dLT)p        2.3558
 Cp, KJ/(KG)(K)   16.2325
 GAMMAs            1.1289
 SON VEL,M/SEC     1542.6

 DETONATION PARAMETERS

 P/P1              18.777
 T/T1              12.332
 M/M1              1.2075
 RHO/RHO1          1.8386
 DET MACH NUMBER   5.2731
 DET VEL,M/SEC     2836.2

 MOLE FRACTIONS

 *H               0.07993
 HO2              0.00019
 *H2              0.16206
 H2O              0.53216
 H2O2             0.00002
 *O               0.03738
 *OH              0.14145
 *O2              0.04681

  * THERMODYNAMIC PROPERTIES FITTED TO 20000.K

    PRODUCTS WHICH WERE CONSIDERED BUT WHOSE MOLE FRACTIONS
    WERE LESS THAN 5.000000E-06 FOR ALL ASSIGNED CONDITIONS

 O3              H2O(cr)         H2O(L)         

 NOTE. WEIGHT FRACTION OF FUEL IN TOTAL FUELS AND OF OXIDANT IN TOTAL OXIDANTS

 O/F =   6.613902

                       EFFECTIVE FUEL     EFFECTIVE OXIDANT        MIXTURE
 ENTHALPY                  h(2)/R              h(1)/R               h0/R
 (KG-MOL)(K)/KG        0.00000000E+00      0.00000000E+00      0.00000000E+00

 KG-FORM.WT./KG             bi(2)               bi(1)               b0i
  *H                   0.99212255E+00      0.00000000E+00      0.13030408E+00
  *O                   0.00000000E+00      0.62502344E-01      0.54293367E-01

 POINT ITN      T            H           O 
   1    6    3595.229     -10.145     -16.057

 POINT ITN      T            H           O 
   1    3    3624.790     -10.059     -15.988

 POINT ITN      T            H           O 
   1    3    3668.167     -10.064     -15.968

 POINT ITN      T            H           O 
   1    2    3666.830     -10.064     -15.969


                     DETONATION PROPERTIES OF AN IDEAL REACTING GAS
 CASE =                

             REACTANT                    WT FRACTION      ENERGY      TEMP
                                          (SEE NOTE)     KJ/KG-MOL      K  
 FUEL        H2                           1.0000000         0.000    298.150
 OXIDANT     O2                           1.0000000         0.000    298.150

 O/F=    6.61390  %FUEL= 13.133870  R,EQ.RATIO= 1.200000  PHI,EQ.RATIO= 1.200000

 UNBURNED GAS

 P1, BAR           1.0132
 T1, K             298.15
 H1, KJ/KG           0.00
 M1, (1/n)         10.834
 GAMMA1            1.4020
 SON VEL1,M/SEC     566.4

 BURNED GAS

 P, BAR            19.050
 T, K             3666.83
 RHO, KG/CU M    8.1382-1
 H, KJ/KG         3144.59
 U, KJ/KG          803.82
 G, KJ/KG        -66413.2
 S, KJ/(KG)(K)    18.9695

 M, (1/n)          13.025
 (dLV/dLP)t      -1.07716
 (dLV/dLT)p        2.2796
 Cp, KJ/(KG)(K)   17.2458
 GAMMAs            1.1302
 SON VEL,M/SEC     1626.5

 DETONATION PARAMETERS

 P/P1              18.801
 T/T1              12.299
 M/M1              1.2022
 RHO/RHO1          1.8377
 DET MACH NUMBER   5.2774
 DET VEL,M/SEC     2989.1

 MOLE FRACTIONS

 *H               0.09193
 HO2              0.00010
 *H2              0.22359
 H2O              0.52147
 H2O2             0.00001
 *O               0.02535
 *OH              0.11500
 *O2              0.02255

  * THERMODYNAMIC PROPERTIES FITTED TO 20000.K

    PRODUCTS WHICH WERE CONSIDERED BUT WHOSE MOLE FRACTIONS
    WERE LESS THAN 5.000000E-06 FOR ALL ASSIGNED CONDITIONS

 O3              H2O(cr)         H2O(L)         

 NOTE. WEIGHT FRACTION OF FUEL IN TOTAL FUELS AND OF OXIDANT IN TOTAL OXIDANTS

 O/F =   5.669059

                       EFFECTIVE FUEL     EFFECTIVE OXIDANT        MIXTURE
 ENTHALPY                  h(2)/R              h(1)/R               h0/R
 (KG-MOL)(K)/KG        0.00000000E+00      0.00000000E+00      0.00000000E+00

 KG-FORM.WT./KG             bi(2)               bi(1)               b0i
  *H                   0.99212255E+00      0.00000000E+00      0.14876500E+00
  *O                   0.00000000E+00      0.62502344E-01      0.53130356E-01

 POINT ITN      T            H           O 
   1    6    3556.429      -9.999     -16.418

 POINT ITN      T            H           O 
   1    3    3588.851      -9.914     -16.354

 POINT ITN      T            H           O 
   1    3    3629.290      -9.924     -16.317

 POINT ITN      T            H           O 
   1    2    3628.059      -9.924     -16.318


                     DETONATION PROPERTIES OF AN IDEAL REACTING GAS
 CASE =                

             REACTANT                    WT FRACTION      ENERGY      TEMP
                                          (SEE NOTE)     KJ/KG-MOL      K  
 FUEL        H2                           1.0000000         0.000    298.150
 OXIDANT     O2                           1.0000000         0.000    298.150

 O/F=    5.66906  %FUEL= 14.994619  R,EQ.RATIO= 1.400000  PHI,EQ.RATIO= 1.400000

 UNBURNED GAS

 P1, BAR           1.0132
 T1, K             298.15
 H1, KJ/KG           0.00
 M1, (1/n)          9.906
 GAMMA1            1.4024
 SON VEL1,M/SEC     592.4

 BURNED GAS

 P, BAR            18.939
 T, K             3628.06
 RHO, KG/CU M    7.4325-1
 H, KJ/KG         3419.45
 U, KJ/KG          871.37
 G, KJ/KG        -70688.7
 S, KJ/(KG)(K)    20.4264

 M, (1/n)          11.839
 (dLV/dLP)t      -1.06539
 (dLV/dLT)p        2.0937
 Cp, KJ/(KG)(K)   16.8694
 GAMMAs            1.1326
 SON VEL,M/SEC     1698.8

 DETONATION PARAMETERS

 P/P1              18.691
 T/T1              12.169
 M/M1              1.1951
 RHO/RHO1          1.8356
 DET MACH NUMBER   5.2641
 DET VEL,M/SEC     3118.5

 MOLE FRACTIONS

 *H               0.09612
 HO2              0.00006
 *H2              0.28576
 H2O              0.50226
 H2O2             0.00001
 *O               0.01607
 *OH              0.08893
 *O2              0.01080

  * THERMODYNAMIC PROPERTIES FITTED TO 20000.K

    PRODUCTS WHICH WERE CONSIDERED BUT WHOSE MOLE FRACTIONS
    WERE LESS THAN 5.000000E-06 FOR ALL ASSIGNED CONDITIONS

 O3              H2O(cr)         H2O(L)         

 NOTE. WEIGHT FRACTION OF FUEL IN TOTAL FUELS AND OF OXIDANT IN TOTAL OXIDANTS



