
 *******************************************************************************

         NASA-GLENN CHEMICAL EQUILIBRIUM PROGRAM CEA2, MAY 21, 2004
                   BY  BONNIE MCBRIDE AND SANFORD GORDON
      REFS: NASA RP-1311, PART I, 1994 AND NASA RP-1311, PART II, 1996

 *******************************************************************************



 problem   case=HDPE o/f=7.5,8,8.5,9,
       rocket  frozen  nfz=2  tcest,k=3800
   p,bar=25,
   pi/p=26.04,
 react
   oxid=O2 t,k=298.15
   fuel=HDPE
     h,kj/mol=-25.6  C 2 H 4
 output
      siunits massf
     plot %f o/f phi,eq.ratio r,eq.ratio isp cf
 end

 OPTIONS: TP=F  HP=F  SP=F  TV=F  UV=F  SV=F  DETN=F  SHOCK=F  REFL=F  INCD=F
 RKT=T  FROZ=T  EQL=F  IONS=F  SIUNIT=T  DEBUGF=F  SHKDBG=F  DETDBG=F  TRNSPT=F

 TRACE= 0.00E+00  S/R= 0.000000E+00  H/R= 0.000000E+00  U/R= 0.000000E+00

 Pc,BAR =    25.000000

 Pc/P =    26.0400

 SUBSONIC AREA RATIOS =

 SUPERSONIC AREA RATIOS =

 NFZ=  2  Mdot/Ac= 0.000000E+00  Ac/At= 0.000000E+00

 WARNING!!  AMOUNT MISSING FOR REACTANT  1.
 PROGRAM SETS WEIGHT PERCENT = 100. (REACT)

 WARNING!!  AMOUNT MISSING FOR REACTANT  2.
 PROGRAM SETS WEIGHT PERCENT = 100. (REACT)

    REACTANT          WT.FRAC   (ENERGY/R),K   TEMP,K  DENSITY
        EXPLODED FORMULA
 O: O2               1.000000  -0.154035E-05   298.15  0.0000
          O  2.00000
 F: HDPE             1.000000  -0.307895E+04     0.00  0.0000
          C  2.00000  H  4.00000

  SPECIES BEING CONSIDERED IN THIS SYSTEM
 (CONDENSED PHASE MAY HAVE NAME LISTED SEVERAL TIMES)
  LAST thermo.inp UPDATE:    9/09/04

  g 7/97  *C               tpis79  *CH              g 4/02  CH2            
  g 4/02  CH3              g11/00  CH2OH            g 7/00  CH3O           
  g 8/99  CH4              g 7/00  CH3OH            srd 01  CH3OOH         
  tpis79  *CO              g 9/99  *CO2             tpis91  COOH           
  tpis91  *C2              g 6/01  C2H              g 1/91  C2H2,acetylene 
  g 5/01  C2H2,vinylidene  g 4/02  CH2CO,ketene     g 3/02  O(CH)2O        
  srd 01  HO(CO)2OH        g 7/01  C2H3,vinyl       g 6/96  CH3CO,acetyl   
  g 1/00  C2H4             g 8/88  C2H4O,ethylen-o  g 8/88  CH3CHO,ethanal 
  g 6/00  CH3COOH          srd 01  OHCH2COOH        g 7/00  C2H5           
  g 7/00  C2H6             g 8/88  C2H5OH           g 7/00  CH3OCH3        
  srd 01  CH3O2CH3         g 8/00  C2O              tpis79  *C3            
  n 4/98  C3H3,1-propynl   n 4/98  C3H3,2-propynl   g 2/00  C3H4,allene    
  g 1/00  C3H4,propyne     g 5/90  C3H4,cyclo-      g 3/01  C3H5,allyl     
  g 2/00  C3H6,propylene   g 1/00  C3H6,cyclo-      g 6/01  C3H6O,propylox 
  g 6/97  C3H6O,acetone    g 1/02  C3H6O,propanal   g 7/01  C3H7,n-propyl  
  g 9/85  C3H7,i-propyl    g 2/00  C3H8             g 2/00  C3H8O,1propanol
  g 2/00  C3H8O,2propanol  g 7/88  C3O2             g tpis  *C4            
  g 7/01  C4H2,butadiyne   g 8/00  C4H4,1,3-cyclo-  n10/92  C4H6,butadiene 
  n10/93  C4H6,1butyne     n10/93  C4H6,2butyne     g 8/00  C4H6,cyclo-    
  n 4/88  C4H8,1-butene    n 4/88  C4H8,cis2-buten  n 4/88  C4H8,tr2-butene
  n 4/88  C4H8,isobutene   g 8/00  C4H8,cyclo-      g10/00  (CH3COOH)2     
  n10/84  C4H9,n-butyl     n10/84  C4H9,i-butyl     g 1/93  C4H9,s-butyl   
  g 1/93  C4H9,t-butyl     g12/00  C4H10,n-butane   g 8/00  C4H10,isobutane
  g 8/00  *C5              g 5/90  C5H6,1,3cyclo-   g 1/93  C5H8,cyclo-    
  n 4/87  C5H10,1-pentene  g 2/01  C5H10,cyclo-     n10/84  C5H11,pentyl   
  g 1/93  C5H11,t-pentyl   n10/85  C5H12,n-pentane  n10/85  C5H12,i-pentane
  n10/85  CH3C(CH3)2CH3    g 2/93  C6H2             g11/00  C6H5,phenyl    
  g 8/00  C6H5O,phenoxy    g 8/00  C6H6             g 8/00  C6H5OH,phenol  
  g 1/93  C6H10,cyclo-     n 4/87  C6H12,1-hexene   g 6/90  C6H12,cyclo-   
  n10/83  C6H13,n-hexyl    g 6/01  C6H14,n-hexane   g 7/01  C7H7,benzyl    
  g 1/93  C7H8             g12/00  C7H8O,cresol-mx  n 4/87  C7H14,1-heptene
  n10/83  C7H15,n-heptyl   n10/85  C7H16,n-heptane  n10/85  C7H16,2-methylh
  n 4/89  C8H8,styrene     n10/86  C8H10,ethylbenz  n 4/87  C8H16,1-octene 
  n10/83  C8H17,n-octyl    n 4/85  C8H18,n-octane   n 4/85  C8H18,isooctane
  n10/83  C9H19,n-nonyl    g 3/01  C10H8,naphthale  n10/83  C10H21,n-decyl 
  g 8/00  C12H9,o-bipheny  g 8/00  C12H10,biphenyl  g 6/97  *H             
  g 1/01  HCO              g 6/01  HCCO             g 4/02  HO2            
  tpis78  *H2              g 5/01  HCHO,formaldehy  g 6/01  HCOOH          
  g 8/89  H2O              g 6/99  H2O2             g 6/01  (HCOOH)2       
  g 5/97  *O               g 4/02  *OH              tpis89  *O2            
  g 8/01  O3               n 4/83  C(gr)            n 4/83  C(gr)          
  n 4/83  C(gr)            g11/99  H2O(cr)          g 8/01  H2O(L)         
  g 8/01  H2O(L)         

 O/F =   7.500000

                       EFFECTIVE FUEL     EFFECTIVE OXIDANT        MIXTURE
 ENTHALPY                  h(2)/R              h(1)/R               h0/R
 (KG-MOL)(K)/KG       -0.10975429E+03     -0.48137850E-07     -0.12912270E+02

 KG-FORM.WT./KG             bi(2)               bi(1)               b0i
  *O                   0.00000000E+00      0.62502344E-01      0.55149127E-01
  *C                   0.71293216E-01      0.00000000E+00      0.83874372E-02
  *H                   0.14258643E+00      0.00000000E+00      0.16774874E-01

 POINT ITN      T            O           C           H 
   1   26    3200.133     -14.074     -19.454     -11.549
 Pinf/Pt = 1.730513
   2    3    3036.368     -14.238     -20.096     -11.829
 Pinf/Pt = 1.729980
   2    2    3036.458     -14.238     -20.095     -11.829





           THEORETICAL ROCKET PERFORMANCE ASSUMING FROZEN COMPOSITION
                                 AFTER POINT 2

 Pin =   362.6 PSIA
 CASE = HDPE           

             REACTANT                    WT FRACTION      ENERGY      TEMP
                                          (SEE NOTE)     KJ/KG-MOL      K  
 OXIDANT     O2                           1.0000000         0.000    298.150
 FUEL        HDPE                         1.0000000    -25600.000      0.000

 O/F=    7.50000  %FUEL= 11.764706  R,EQ.RATIO= 0.456259  PHI,EQ.RATIO= 0.456259

                 CHAMBER   THROAT     EXIT
 Pinf/P            1.0000   1.7300   26.040
 P, BAR            25.000   14.451  0.96006
 T, K             3200.13  3036.46  1865.20
 RHO, KG/CU M    2.7887 0 1.7187 0 1.8588-1
 H, KJ/KG         -107.36  -583.30 -2393.03
 U, KJ/KG        -1003.83 -1424.14 -2909.53
 G, KJ/KG        -30148.8 -29088.2 -19902.7
 S, KJ/(KG)(K)     9.3876   9.3876   9.3876

 M, (1/n)          29.680   30.026   30.026
 Cp, KJ/(KG)(K)    4.3281   4.0456   1.4856
 GAMMAs            1.1329   1.1321   1.2291
 SON VEL,M/SEC     1007.8    975.6    796.8
 MACH NUMBER        0.000    1.000    2.683

 PERFORMANCE PARAMETERS

 Ae/At                      1.0000   4.2192
 CSTAR, M/SEC               1490.9   1490.9
 CF                         0.6544   1.4340
 Ivac, M/SEC                1837.5   2379.6
 Isp, M/SEC                  975.6   2138.1

 MASS FRACTIONS

 *CO             0.03048   *CO2            0.32123   *H              0.00010
 HO2             0.00026   *H2             0.00029   H2O             0.13049
 H2O2            0.00001   *O              0.01196   *OH             0.03212
 *O2             0.47305

  * THERMODYNAMIC PROPERTIES FITTED TO 20000.K

    PRODUCTS WHICH WERE CONSIDERED BUT WHOSE MASS FRACTIONS
    WERE LESS THAN 5.000000E-06 FOR ALL ASSIGNED CONDITIONS



 NOTE. WEIGHT FRACTION OF FUEL IN TOTAL FUELS AND OF OXIDANT IN TOTAL OXIDANTS






 O/F =   8.000000

                       EFFECTIVE FUEL     EFFECTIVE OXIDANT        MIXTURE
 ENTHALPY                  h(2)/R              h(1)/R               h0/R
 (KG-MOL)(K)/KG       -0.10975429E+03     -0.48137850E-07     -0.12194921E+02

 KG-FORM.WT./KG             bi(2)               bi(1)               b0i
  *O                   0.00000000E+00      0.62502344E-01      0.55557639E-01
  *C                   0.71293216E-01      0.00000000E+00      0.79214685E-02
  *H                   0.14258643E+00      0.00000000E+00      0.15842937E-01

 POINT ITN      T            O           C           H 
   1    3    3149.205     -14.009     -19.741     -11.630
 Pinf/Pt = 1.732088
   2    4    2981.821     -14.169     -20.428     -11.922
 Pinf/Pt = 1.732235
   2    1    2981.795     -14.169     -20.428     -11.922





           THEORETICAL ROCKET PERFORMANCE ASSUMING FROZEN COMPOSITION
                                 AFTER POINT 2

 Pin =   362.6 PSIA
 CASE = HDPE           

             REACTANT                    WT FRACTION      ENERGY      TEMP
                                          (SEE NOTE)     KJ/KG-MOL      K  
 OXIDANT     O2                           1.0000000         0.000    298.150
 FUEL        HDPE                         1.0000000    -25600.000      0.000

 O/F=    8.00000  %FUEL= 11.111111  R,EQ.RATIO= 0.427743  PHI,EQ.RATIO= 0.427743

                 CHAMBER   THROAT     EXIT
 Pinf/P            1.0000   1.7322   26.040
 P, BAR            25.000   14.432  0.96006
 T, K             3149.20  2981.80  1827.47
 RHO, KG/CU M    2.8616 0 1.7638 0 1.9145-1
 H, KJ/KG         -101.39  -566.00 -2324.49
 U, KJ/KG         -975.03 -1384.23 -2825.97
 G, KJ/KG        -29299.0 -28211.5 -19267.7
 S, KJ/(KG)(K)     9.2714   9.2714   9.2714

 M, (1/n)          29.971   30.300   30.300
 Cp, KJ/(KG)(K)    3.9736   3.6705   1.4641
 GAMMAs            1.1355   1.1356   1.2307
 SON VEL,M/SEC      996.0    964.0    785.6
 MACH NUMBER        0.000    1.000    2.684

 PERFORMANCE PARAMETERS

 Ae/At                      1.0000   4.2118
 CSTAR, M/SEC               1470.4   1470.4
 CF                         0.6556   1.4341
 Ivac, M/SEC                1812.8   2346.4
 Isp, M/SEC                  964.0   2108.6

 MASS FRACTIONS

 *CO             0.02349   *CO2            0.31171   *H              0.00008
 HO2             0.00024   *H2             0.00022   H2O             0.12494
 H2O2            0.00001   *O              0.01017   *OH             0.02834
 *O2             0.50080

  * THERMODYNAMIC PROPERTIES FITTED TO 20000.K

    PRODUCTS WHICH WERE CONSIDERED BUT WHOSE MASS FRACTIONS
    WERE LESS THAN 5.000000E-06 FOR ALL ASSIGNED CONDITIONS



 NOTE. WEIGHT FRACTION OF FUEL IN TOTAL FUELS AND OF OXIDANT IN TOTAL OXIDANTS






 O/F =   8.500000

                       EFFECTIVE FUEL     EFFECTIVE OXIDANT        MIXTURE
 ENTHALPY                  h(2)/R              h(1)/R               h0/R
 (KG-MOL)(K)/KG       -0.10975429E+03     -0.48137850E-07     -0.11553084E+02

 KG-FORM.WT./KG             bi(2)               bi(1)               b0i
  *O                   0.00000000E+00      0.62502344E-01      0.55923150E-01
  *C                   0.71293216E-01      0.00000000E+00      0.75045491E-02
  *H                   0.14258643E+00      0.00000000E+00      0.15009098E-01

 POINT ITN      T            O           C           H 
   1    3    3098.224     -13.948     -20.030     -11.711
 Pinf/Pt = 1.733898
   2    4    2926.758     -14.105     -20.767     -12.015
 Pinf/Pt = 1.734826
   2    2    2926.593     -14.105     -20.768     -12.016





           THEORETICAL ROCKET PERFORMANCE ASSUMING FROZEN COMPOSITION
                                 AFTER POINT 2

 Pin =   362.6 PSIA
 CASE = HDPE           

             REACTANT                    WT FRACTION      ENERGY      TEMP
                                          (SEE NOTE)     KJ/KG-MOL      K  
 OXIDANT     O2                           1.0000000         0.000    298.150
 FUEL        HDPE                         1.0000000    -25600.000      0.000

 O/F=    8.50000  %FUEL= 10.526316  R,EQ.RATIO= 0.402582  PHI,EQ.RATIO= 0.402582

                 CHAMBER   THROAT     EXIT
 Pinf/P            1.0000   1.7348   26.040
 P, BAR            25.000   14.411  0.96006
 T, K             3098.22  2926.59  1789.19
 RHO, KG/CU M    2.9332 0 1.8083 0 1.9706-1
 H, KJ/KG         -96.058  -550.19 -2260.07
 U, KJ/KG         -948.36 -1347.11 -2747.27
 G, KJ/KG        -28493.7 -27374.7 -18659.4
 S, KJ/(KG)(K)     9.1658   9.1658   9.1658

 M, (1/n)          30.224   30.534   30.534
 Cp, KJ/(KG)(K)    3.6552   3.3391   1.4442
 GAMMAs            1.1384   1.1397   1.2324
 SON VEL,M/SEC      985.0    953.0    774.9
 MACH NUMBER        0.000    1.000    2.685

 PERFORMANCE PARAMETERS

 Ae/At                      1.0000   4.2038
 CSTAR, M/SEC               1450.6   1450.6
 CF                         0.6570   1.4341
 Ivac, M/SEC                1789.2   2314.6
 Isp, M/SEC                  953.0   2080.4

 MASS FRACTIONS

 *CO             0.01799   *CO2            0.30201   *H              0.00006
 HO2             0.00022   *H2             0.00017   H2O             0.11992
 H2O2            0.00001   *O              0.00855   *OH             0.02485
 *O2             0.52622

  * THERMODYNAMIC PROPERTIES FITTED TO 20000.K

    PRODUCTS WHICH WERE CONSIDERED BUT WHOSE MASS FRACTIONS
    WERE LESS THAN 5.000000E-06 FOR ALL ASSIGNED CONDITIONS



 NOTE. WEIGHT FRACTION OF FUEL IN TOTAL FUELS AND OF OXIDANT IN TOTAL OXIDANTS






 O/F =   9.000000

                       EFFECTIVE FUEL     EFFECTIVE OXIDANT        MIXTURE
 ENTHALPY                  h(2)/R              h(1)/R               h0/R
 (KG-MOL)(K)/KG       -0.10975429E+03     -0.48137850E-07     -0.10975429E+02

 KG-FORM.WT./KG             bi(2)               bi(1)               b0i
  *O                   0.00000000E+00      0.62502344E-01      0.56252109E-01
  *C                   0.71293216E-01      0.00000000E+00      0.71293216E-02
  *H                   0.14258643E+00      0.00000000E+00      0.14258643E-01

 POINT ITN      T            O           C           H 
   1    3    3047.205     -13.890     -20.321     -11.791
 Pinf/Pt = 1.735945
   2    4    2871.252     -14.043     -21.114     -12.111
 Pinf/Pt = 1.737746
   2    2    2870.924     -14.043     -21.116     -12.111





           THEORETICAL ROCKET PERFORMANCE ASSUMING FROZEN COMPOSITION
                                 AFTER POINT 2

 Pin =   362.6 PSIA
 CASE = HDPE           

             REACTANT                    WT FRACTION      ENERGY      TEMP
                                          (SEE NOTE)     KJ/KG-MOL      K  
 OXIDANT     O2                           1.0000000         0.000    298.150
 FUEL        HDPE                         1.0000000    -25600.000      0.000

 O/F=    9.00000  %FUEL= 10.000000  R,EQ.RATIO= 0.380216  PHI,EQ.RATIO= 0.380216

                 CHAMBER   THROAT     EXIT
 Pinf/P            1.0000   1.7377   26.040
 P, BAR            25.000   14.386  0.96006
 T, K             3047.21  2870.92  1750.50
 RHO, KG/CU M    3.0041 0 1.8523 0 2.0273-1
 H, KJ/KG         -91.255  -535.64 -2199.09
 U, KJ/KG         -923.46 -1312.31 -2672.65
 G, KJ/KG        -27726.8 -26572.5 -18074.7
 S, KJ/(KG)(K)     9.0692   9.0692   9.0692

 M, (1/n)          30.444   30.734   30.734
 Cp, KJ/(KG)(K)    3.3702   3.0476   1.4257
 GAMMAs            1.1417   1.1443   1.2342
 SON VEL,M/SEC      974.8    942.7    764.5
 MACH NUMBER        0.000    1.000    2.686

 PERFORMANCE PARAMETERS

 Ae/At                      1.0000   4.1952
 CSTAR, M/SEC               1431.6   1431.6
 CF                         0.6585   1.4342
 Ivac, M/SEC                1766.6   2283.9
 Isp, M/SEC                  942.7   2053.2

 MASS FRACTIONS

 *CO             0.01367   *CO2            0.29228   *H              0.00004
 HO2             0.00020   *H2             0.00013   H2O             0.11535
 H2O2            0.00001   *O              0.00710   *OH             0.02167
 *O2             0.54954

  * THERMODYNAMIC PROPERTIES FITTED TO 20000.K

    PRODUCTS WHICH WERE CONSIDERED BUT WHOSE MASS FRACTIONS
    WERE LESS THAN 5.000000E-06 FOR ALL ASSIGNED CONDITIONS



 NOTE. WEIGHT FRACTION OF FUEL IN TOTAL FUELS AND OF OXIDANT IN TOTAL OXIDANTS



