
 *******************************************************************************

         NASA-GLENN CHEMICAL EQUILIBRIUM PROGRAM CEA2, MAY 21, 2004
                   BY  BONNIE MCBRIDE AND SANFORD GORDON
      REFS: NASA RP-1311, PART I, 1994 AND NASA RP-1311, PART II, 1996

 *******************************************************************************



 problem   case=HDPE o/f=8,8.5,9,7,
       rocket  frozen  nfz=2  tcest,k=3800
   p,bar=25,
   pi/p=26.04,
 react
   oxid=H2O2(L) wt=90  t,k=298.15
   oxid=H2O(L) wt=10  t,k=298.15
   fuel=HDPE
     h,kj/mol=-25.6  C 2 H 4
 output
      siunits massf
     plot %f o/f phi,eq.ratio r,eq.ratio isp cf
 end

 OPTIONS: TP=F  HP=F  SP=F  TV=F  UV=F  SV=F  DETN=F  SHOCK=F  REFL=F  INCD=F
 RKT=T  FROZ=T  EQL=F  IONS=F  SIUNIT=T  DEBUGF=F  SHKDBG=F  DETDBG=F  TRNSPT=F

 TRACE= 0.00E+00  S/R= 0.000000E+00  H/R= 0.000000E+00  U/R= 0.000000E+00

 Pc,BAR =    25.000000

 Pc/P =    26.0400

 SUBSONIC AREA RATIOS =

 SUPERSONIC AREA RATIOS =

 NFZ=  2  Mdot/Ac= 0.000000E+00  Ac/At= 0.000000E+00

 WARNING!!  AMOUNT MISSING FOR REACTANT  3.
 PROGRAM SETS WEIGHT PERCENT = 100. (REACT)

    REACTANT          WT.FRAC   (ENERGY/R),K   TEMP,K  DENSITY
        EXPLODED FORMULA
 O: H2O2(L)          0.900000  -0.225846E+05   298.15  0.0000
          H  2.00000  O  2.00000
 O: H2O(L)           0.100000  -0.343773E+05   298.15  0.0000
          H  2.00000  O  1.00000
 F: HDPE             1.000000  -0.307895E+04     0.00  0.0000
          C  2.00000  H  4.00000

  SPECIES BEING CONSIDERED IN THIS SYSTEM
 (CONDENSED PHASE MAY HAVE NAME LISTED SEVERAL TIMES)
  LAST thermo.inp UPDATE:    9/09/04

  g 7/97  *C               tpis79  *CH              g 4/02  CH2            
  g 4/02  CH3              g11/00  CH2OH            g 7/00  CH3O           
  g 8/99  CH4              g 7/00  CH3OH            srd 01  CH3OOH         
  tpis79  *CO              g 9/99  *CO2             tpis91  COOH           
  tpis91  *C2              g 6/01  C2H              g 1/91  C2H2,acetylene 
  g 5/01  C2H2,vinylidene  g 4/02  CH2CO,ketene     g 3/02  O(CH)2O        
  srd 01  HO(CO)2OH        g 7/01  C2H3,vinyl       g 6/96  CH3CO,acetyl   
  g 1/00  C2H4             g 8/88  C2H4O,ethylen-o  g 8/88  CH3CHO,ethanal 
  g 6/00  CH3COOH          srd 01  OHCH2COOH        g 7/00  C2H5           
  g 7/00  C2H6             g 8/88  C2H5OH           g 7/00  CH3OCH3        
  srd 01  CH3O2CH3         g 8/00  C2O              tpis79  *C3            
  n 4/98  C3H3,1-propynl   n 4/98  C3H3,2-propynl   g 2/00  C3H4,allene    
  g 1/00  C3H4,propyne     g 5/90  C3H4,cyclo-      g 3/01  C3H5,allyl     
  g 2/00  C3H6,propylene   g 1/00  C3H6,cyclo-      g 6/01  C3H6O,propylox 
  g 6/97  C3H6O,acetone    g 1/02  C3H6O,propanal   g 7/01  C3H7,n-propyl  
  g 9/85  C3H7,i-propyl    g 2/00  C3H8             g 2/00  C3H8O,1propanol
  g 2/00  C3H8O,2propanol  g 7/88  C3O2             g tpis  *C4            
  g 7/01  C4H2,butadiyne   g 8/00  C4H4,1,3-cyclo-  n10/92  C4H6,butadiene 
  n10/93  C4H6,1butyne     n10/93  C4H6,2butyne     g 8/00  C4H6,cyclo-    
  n 4/88  C4H8,1-butene    n 4/88  C4H8,cis2-buten  n 4/88  C4H8,tr2-butene
  n 4/88  C4H8,isobutene   g 8/00  C4H8,cyclo-      g10/00  (CH3COOH)2     
  n10/84  C4H9,n-butyl     n10/84  C4H9,i-butyl     g 1/93  C4H9,s-butyl   
  g 1/93  C4H9,t-butyl     g12/00  C4H10,n-butane   g 8/00  C4H10,isobutane
  g 8/00  *C5              g 5/90  C5H6,1,3cyclo-   g 1/93  C5H8,cyclo-    
  n 4/87  C5H10,1-pentene  g 2/01  C5H10,cyclo-     n10/84  C5H11,pentyl   
  g 1/93  C5H11,t-pentyl   n10/85  C5H12,n-pentane  n10/85  C5H12,i-pentane
  n10/85  CH3C(CH3)2CH3    g 2/93  C6H2             g11/00  C6H5,phenyl    
  g 8/00  C6H5O,phenoxy    g 8/00  C6H6             g 8/00  C6H5OH,phenol  
  g 1/93  C6H10,cyclo-     n 4/87  C6H12,1-hexene   g 6/90  C6H12,cyclo-   
  n10/83  C6H13,n-hexyl    g 6/01  C6H14,n-hexane   g 7/01  C7H7,benzyl    
  g 1/93  C7H8             g12/00  C7H8O,cresol-mx  n 4/87  C7H14,1-heptene
  n10/83  C7H15,n-heptyl   n10/85  C7H16,n-heptane  n10/85  C7H16,2-methylh
  n 4/89  C8H8,styrene     n10/86  C8H10,ethylbenz  n 4/87  C8H16,1-octene 
  n10/83  C8H17,n-octyl    n 4/85  C8H18,n-octane   n 4/85  C8H18,isooctane
  n10/83  C9H19,n-nonyl    g 3/01  C10H8,naphthale  n10/83  C10H21,n-decyl 
  g 8/00  C12H9,o-bipheny  g 8/00  C12H10,biphenyl  g 6/97  *H             
  g 1/01  HCO              g 6/01  HCCO             g 4/02  HO2            
  tpis78  *H2              g 5/01  HCHO,formaldehy  g 6/01  HCOOH          
  g 8/89  H2O              g 6/99  H2O2             g 6/01  (HCOOH)2       
  g 5/97  *O               g 4/02  *OH              tpis89  *O2            
  g 8/01  O3               n 4/83  C(gr)            n 4/83  C(gr)          
  n 4/83  C(gr)            g11/99  H2O(cr)          g 8/01  H2O(L)         
  g 8/01  H2O(L)         

 O/F =   8.000000

                       EFFECTIVE FUEL     EFFECTIVE OXIDANT        MIXTURE
 ENTHALPY                  h(2)/R              h(1)/R               h0/R
 (KG-MOL)(K)/KG       -0.10975429E+03     -0.78839281E+03     -0.71298853E+03

 KG-FORM.WT./KG             bi(2)               bi(1)               b0i
  *H                   0.14258643E+00      0.64020015E-01      0.72749617E-01
  *O                   0.00000000E+00      0.58469172E-01      0.51972597E-01
  *C                   0.71293216E-01      0.00000000E+00      0.79214685E-02

 POINT ITN      T            H           O           C 
   1   23    2747.104     -10.587     -15.419     -18.624
 Pinf/Pt = 1.727891
   2    3    2599.048     -10.872     -15.708     -19.195
 Pinf/Pt = 1.729352
   2    2    2598.822     -10.873     -15.709     -19.196





           THEORETICAL ROCKET PERFORMANCE ASSUMING FROZEN COMPOSITION
                                 AFTER POINT 2

 Pin =   362.6 PSIA
 CASE = HDPE           

             REACTANT                    WT FRACTION      ENERGY      TEMP
                                          (SEE NOTE)     KJ/KG-MOL      K  
 OXIDANT     H2O2(L)                      0.9000000   -187780.000    298.150
 OXIDANT     H2O(L)                       0.1000000   -285830.088    298.150
 FUEL        HDPE                         1.0000000    -25600.000      0.000

 O/F=    8.00000  %FUEL= 11.111111  R,EQ.RATIO= 1.004717  PHI,EQ.RATIO= 1.010423

                 CHAMBER   THROAT     EXIT
 Pinf/P            1.0000   1.7294   26.040
 P, BAR            25.000   14.456  0.96006
 T, K             2747.10  2598.82  1690.84
 RHO, KG/CU M    2.3995 0 1.4775 0 1.5081-1
 H, KJ/KG        -5928.15 -6481.33 -8645.77
 U, KJ/KG        -6970.03 -7459.77 -9282.37
 G, KJ/KG        -39264.6 -38018.3 -29164.3
 S, KJ/(KG)(K)    12.1351  12.1351  12.1351

 M, (1/n)          21.923   22.084   22.084
 Cp, KJ/(KG)(K)    4.7331   4.3838   2.2521
 GAMMAs            1.1286   1.1307   1.2007
 SON VEL,M/SEC     1084.4   1051.8    874.3
 MACH NUMBER        0.000    1.000    2.667

 PERFORMANCE PARAMETERS

 Ae/At                      1.0000   4.4200
 CSTAR, M/SEC               1608.7   1608.7
 CF                         0.6538   1.4492
 Ivac, M/SEC                1982.1   2604.4
 Isp, M/SEC                 1051.8   2331.4

 MASS FRACTIONS

 *CO             0.02749   *CO2            0.30543   *H              0.00006
 HO2             0.00002   *H2             0.00155   H2O             0.63467
 *O              0.00050   *OH             0.01172   *O2             0.01856

  * THERMODYNAMIC PROPERTIES FITTED TO 20000.K

    PRODUCTS WHICH WERE CONSIDERED BUT WHOSE MASS FRACTIONS
    WERE LESS THAN 5.000000E-06 FOR ALL ASSIGNED CONDITIONS



 NOTE. WEIGHT FRACTION OF FUEL IN TOTAL FUELS AND OF OXIDANT IN TOTAL OXIDANTS






 O/F =   8.500000

                       EFFECTIVE FUEL     EFFECTIVE OXIDANT        MIXTURE
 ENTHALPY                  h(2)/R              h(1)/R               h0/R
 (KG-MOL)(K)/KG       -0.10975429E+03     -0.78839281E+03     -0.71695718E+03

 KG-FORM.WT./KG             bi(2)               bi(1)               b0i
  *H                   0.14258643E+00      0.64020015E-01      0.72290164E-01
  *O                   0.00000000E+00      0.58469172E-01      0.52314522E-01
  *C                   0.71293216E-01      0.00000000E+00      0.75045491E-02

 POINT ITN      T            H           O           C 
   1    4    2720.402     -10.724     -15.192     -19.191
 Pinf/Pt = 1.728813
   2    4    2570.491     -11.047     -15.425     -19.907
 Pinf/Pt = 1.730838
   2    2    2570.173     -11.048     -15.425     -19.908





           THEORETICAL ROCKET PERFORMANCE ASSUMING FROZEN COMPOSITION
                                 AFTER POINT 2

 Pin =   362.6 PSIA
 CASE = HDPE           

             REACTANT                    WT FRACTION      ENERGY      TEMP
                                          (SEE NOTE)     KJ/KG-MOL      K  
 OXIDANT     H2O2(L)                      0.9000000   -187780.000    298.150
 OXIDANT     H2O(L)                       0.1000000   -285830.088    298.150
 FUEL        HDPE                         1.0000000    -25600.000      0.000

 O/F=    8.50000  %FUEL= 10.526316  R,EQ.RATIO= 0.977820  PHI,EQ.RATIO= 0.950987

                 CHAMBER   THROAT     EXIT
 Pinf/P            1.0000   1.7308   26.040
 P, BAR            25.000   14.444  0.96006
 T, K             2720.40  2570.17  1671.54
 RHO, KG/CU M    2.4368 0 1.5005 0 1.5336-1
 H, KJ/KG        -5961.15 -6506.47 -8634.86
 U, KJ/KG        -6987.07 -7469.05 -9260.88
 G, KJ/KG        -38770.0 -37503.5 -28794.1
 S, KJ/(KG)(K)    12.0603  12.0603  12.0603

 M, (1/n)          22.047   22.200   22.200
 Cp, KJ/(KG)(K)    4.5407   4.1714   2.2360
 GAMMAs            1.1301   1.1331   1.2012
 SON VEL,M/SEC     1076.8   1044.3    867.2
 MACH NUMBER        0.000    1.000    2.667

 PERFORMANCE PARAMETERS

 Ae/At                      1.0000   4.4188
 CSTAR, M/SEC               1595.3   1595.3
 CF                         0.6546   1.4495
 Ivac, M/SEC                1966.1   2583.2
 Isp, M/SEC                 1044.3   2312.4

 MASS FRACTIONS

 *CO             0.01813   *CO2            0.30179   *H              0.00004
 HO2             0.00003   *H2             0.00105   H2O             0.63488
 H2O2            0.00001   *O              0.00057   *OH             0.01228
 *O2             0.03123

  * THERMODYNAMIC PROPERTIES FITTED TO 20000.K

    PRODUCTS WHICH WERE CONSIDERED BUT WHOSE MASS FRACTIONS
    WERE LESS THAN 5.000000E-06 FOR ALL ASSIGNED CONDITIONS



 NOTE. WEIGHT FRACTION OF FUEL IN TOTAL FUELS AND OF OXIDANT IN TOTAL OXIDANTS






 O/F =   9.000000

                       EFFECTIVE FUEL     EFFECTIVE OXIDANT        MIXTURE
 ENTHALPY                  h(2)/R              h(1)/R               h0/R
 (KG-MOL)(K)/KG       -0.10975429E+03     -0.78839281E+03     -0.72052896E+03

 KG-FORM.WT./KG             bi(2)               bi(1)               b0i
  *H                   0.14258643E+00      0.64020015E-01      0.71876657E-01
  *O                   0.00000000E+00      0.58469172E-01      0.52622255E-01
  *C                   0.71293216E-01      0.00000000E+00      0.71293216E-02

 POINT ITN      T            H           O           C 
   1    4    2686.217     -10.851     -15.009     -19.717
 Pinf/Pt = 1.730696
   2    4    2532.044     -11.204     -15.207     -20.553
 Pinf/Pt = 1.733754
   2    2    2531.550     -11.205     -15.208     -20.556





           THEORETICAL ROCKET PERFORMANCE ASSUMING FROZEN COMPOSITION
                                 AFTER POINT 2

 Pin =   362.6 PSIA
 CASE = HDPE           

             REACTANT                    WT FRACTION      ENERGY      TEMP
                                          (SEE NOTE)     KJ/KG-MOL      K  
 OXIDANT     H2O2(L)                      0.9000000   -187780.000    298.150
 OXIDANT     H2O(L)                       0.1000000   -285830.088    298.150
 FUEL        HDPE                         1.0000000    -25600.000      0.000

 O/F=    9.00000  %FUEL= 10.000000  R,EQ.RATIO= 0.953911  PHI,EQ.RATIO= 0.898154

                 CHAMBER   THROAT     EXIT
 Pinf/P            1.0000   1.7338   26.040
 P, BAR            25.000   14.420  0.96006
 T, K             2686.22  2531.55  1644.01
 RHO, KG/CU M    2.4779 0 1.5260 0 1.5645-1
 H, KJ/KG        -5990.85 -6528.33 -8615.13
 U, KJ/KG        -6999.78 -7473.25 -9228.76
 G, KJ/KG        -38199.1 -36882.1 -28327.1
 S, KJ/(KG)(K)    11.9902  11.9902  11.9902

 M, (1/n)          22.137   22.275   22.275
 Cp, KJ/(KG)(K)    4.2548   3.8561   2.2175
 GAMMAs            1.1332   1.1376   1.2024
 SON VEL,M/SEC     1069.3   1036.8    859.0
 MACH NUMBER        0.000    1.000    2.667

 PERFORMANCE PARAMETERS

 Ae/At                      1.0000   4.4142
 CSTAR, M/SEC               1580.1   1580.1
 CF                         0.6562   1.4499
 Ivac, M/SEC                1948.2   2558.8
 Isp, M/SEC                 1036.8   2291.0

 MASS FRACTIONS

 *CO             0.01205   *CO2            0.29482   *H              0.00003
 HO2             0.00003   *H2             0.00073   H2O             0.63430
 H2O2            0.00001   *O              0.00057   *OH             0.01202
 *O2             0.04545

  * THERMODYNAMIC PROPERTIES FITTED TO 20000.K

    PRODUCTS WHICH WERE CONSIDERED BUT WHOSE MASS FRACTIONS
    WERE LESS THAN 5.000000E-06 FOR ALL ASSIGNED CONDITIONS



 NOTE. WEIGHT FRACTION OF FUEL IN TOTAL FUELS AND OF OXIDANT IN TOTAL OXIDANTS






 O/F =   7.000000

                       EFFECTIVE FUEL     EFFECTIVE OXIDANT        MIXTURE
 ENTHALPY                  h(2)/R              h(1)/R               h0/R
 (KG-MOL)(K)/KG       -0.10975429E+03     -0.78839281E+03     -0.70356300E+03

 KG-FORM.WT./KG             bi(2)               bi(1)               b0i
  *H                   0.14258643E+00      0.64020015E-01      0.73840817E-01
  *O                   0.00000000E+00      0.58469172E-01      0.51160525E-01
  *C                   0.71293216E-01      0.00000000E+00      0.89116520E-02

 POINT ITN      T            H           O           C 
   1    5    2756.660     -10.265     -16.070     -17.330
 Pinf/Pt = 1.732452
   2    4    2592.790     -10.462     -16.576     -17.545
 Pinf/Pt = 1.737752
   2    2    2591.869     -10.463     -16.580     -17.546
 Pinf/Pt = 1.737790
   2    1    2591.863     -10.463     -16.580     -17.546





           THEORETICAL ROCKET PERFORMANCE ASSUMING FROZEN COMPOSITION
                                 AFTER POINT 2

 Pin =   362.6 PSIA
 CASE = HDPE           

             REACTANT                    WT FRACTION      ENERGY      TEMP
                                          (SEE NOTE)     KJ/KG-MOL      K  
 OXIDANT     H2O2(L)                      0.9000000   -187780.000    298.150
 OXIDANT     H2O(L)                       0.1000000   -285830.088    298.150
 FUEL        HDPE                         1.0000000    -25600.000      0.000

 O/F=    7.00000  %FUEL= 12.500000  R,EQ.RATIO= 1.070038  PHI,EQ.RATIO= 1.154769

                 CHAMBER   THROAT     EXIT
 Pinf/P            1.0000   1.7378   26.040
 P, BAR            25.000   14.386  0.96006
 T, K             2756.66  2591.86  1678.13
 RHO, KG/CU M    2.3461 0 1.4446 0 1.4890-1
 H, KJ/KG        -5849.78 -6419.32 -8613.55
 U, KJ/KG        -6915.38 -7415.19 -9258.34
 G, KJ/KG        -39756.3 -38298.8 -29254.3
 S, KJ/(KG)(K)    12.2998  12.2998  12.2998

 M, (1/n)          21.509   21.639   21.639
 Cp, KJ/(KG)(K)    4.2786   3.7054   2.2676
 GAMMAs            1.1360   1.1438   1.2040
 SON VEL,M/SEC     1100.3   1067.3    881.1
 MACH NUMBER        0.000    1.000    2.668

 PERFORMANCE PARAMETERS

 Ae/At                      1.0000   4.4042
 CSTAR, M/SEC               1621.5   1621.5
 CF                         0.6582   1.4499
 Ivac, M/SEC                2000.4   2625.3
 Isp, M/SEC                 1067.3   2351.1

 MASS FRACTIONS

 *CO             0.06167   *CO2            0.29530   *H              0.00009
 HO2             0.00001   *H2             0.00358   H2O             0.62838
 *O              0.00021   *OH             0.00747   *O2             0.00330

  * THERMODYNAMIC PROPERTIES FITTED TO 20000.K

    PRODUCTS WHICH WERE CONSIDERED BUT WHOSE MASS FRACTIONS
    WERE LESS THAN 5.000000E-06 FOR ALL ASSIGNED CONDITIONS



 NOTE. WEIGHT FRACTION OF FUEL IN TOTAL FUELS AND OF OXIDANT IN TOTAL OXIDANTS



