
 *******************************************************************************

         NASA-GLENN CHEMICAL EQUILIBRIUM PROGRAM CEA2, MAY 21, 2004
                   BY  BONNIE MCBRIDE AND SANFORD GORDON
      REFS: NASA RP-1311, PART I, 1994 AND NASA RP-1311, PART II, 1996

 *******************************************************************************



 problem   case=Monoprop
     rocket  frozen  nfz=1  tcest,k=3800
   p,bar=5,
   pi/p=5.26,
 react
   fuel=H2O2(L) wt=80  t,k=298.16
   fuel=H2O(L) wt=20  t,k=298.16
 output
      siunits
     plot aeat cf ivac isp
 end

 OPTIONS: TP=F  HP=F  SP=F  TV=F  UV=F  SV=F  DETN=F  SHOCK=F  REFL=F  INCD=F
 RKT=T  FROZ=T  EQL=F  IONS=F  SIUNIT=T  DEBUGF=F  SHKDBG=F  DETDBG=F  TRNSPT=F

 TRACE= 0.00E+00  S/R= 0.000000E+00  H/R= 0.000000E+00  U/R= 0.000000E+00

 Pc,BAR =     5.000000

 Pc/P =     5.2600

 SUBSONIC AREA RATIOS =

 SUPERSONIC AREA RATIOS =

 NFZ=  1  Mdot/Ac= 0.000000E+00  Ac/At= 0.000000E+00

    REACTANT          WT.FRAC   (ENERGY/R),K   TEMP,K  DENSITY
        EXPLODED FORMULA
 F: H2O2(L)          0.800000  -0.225845E+05   298.16  0.0000
          H  2.00000  O  2.00000
 F: H2O(L)           0.200000  -0.343772E+05   298.16  0.0000
          H  2.00000  O  1.00000

  SPECIES BEING CONSIDERED IN THIS SYSTEM
 (CONDENSED PHASE MAY HAVE NAME LISTED SEVERAL TIMES)
  LAST thermo.inp UPDATE:    9/09/04

  g 6/97  *H               g 4/02  HO2              tpis78  *H2            
  g 8/89  H2O              g 6/99  H2O2             g 5/97  *O             
  g 4/02  *OH              tpis89  *O2              g 8/01  O3             
  g11/99  H2O(cr)          g 8/01  H2O(L)           g 8/01  H2O(L)         

 O/F =   0.000000

                       EFFECTIVE FUEL     EFFECTIVE OXIDANT        MIXTURE
 ENTHALPY                  h(2)/R              h(1)/R               h0/R
 (KG-MOL)(K)/KG       -0.91281541E+03      0.00000000E+00     -0.91281541E+03

 KG-FORM.WT./KG             bi(2)               bi(1)               b0i
  *H                   0.69241888E-01      0.00000000E+00      0.69241888E-01
  *O                   0.58140201E-01      0.00000000E+00      0.58140201E-01

 POINT ITN      T            H           O 
   1   10     784.484     -23.531     -12.855





           THEORETICAL ROCKET PERFORMANCE ASSUMING FROZEN COMPOSITION

 Pin =    72.5 PSIA
 CASE = Monoprop       

             REACTANT                    WT FRACTION      ENERGY      TEMP
                                          (SEE NOTE)     KJ/KG-MOL      K  
 FUEL        H2O2(L)                      0.8000000   -187779.107    298.160
 FUEL        H2O(L)                       0.2000000   -285829.334    298.160

 O/F=    0.00000  %FUEL=100.000000  R,EQ.RATIO= 0.595473  PHI,EQ.RATIO= 0.000000

                 CHAMBER   THROAT     EXIT
 Pinf/P            1.0000   1.8322   5.2600
 P, BAR            5.0000   2.7290  0.95057
 T, K              784.48   683.98   533.59
 RHO, KG/CU M    1.6528 0 1.0346 0 4.6196-1
 H, KJ/KG        -7589.61 -7760.85 -8007.41
 U, KJ/KG        -7892.13 -8024.61 -8213.19
 G, KJ/KG        -15502.8 -14660.2 -13389.8
 S, KJ/(KG)(K)    10.0871  10.0871  10.0871

 M, (1/n)          21.561   21.561   21.561
 Cp, KJ/(KG)(K)    1.7297   1.6780   1.6015
 GAMMAs            1.2869   1.2984   1.3172
 SON VEL,M/SEC      624.0    585.2    520.6
 MACH NUMBER        0.000    1.000    1.756

 PERFORMANCE PARAMETERS

 Ae/At                      1.0000   1.4338
 CSTAR, M/SEC                825.8    825.8
 CF                         0.7087   1.1069
 Ivac, M/SEC                1035.9   1139.2
 Isp, M/SEC                  585.2    914.1

 MOLE FRACTIONS

 H2O             0.74645   *O2             0.25355

  * THERMODYNAMIC PROPERTIES FITTED TO 20000.K

    PRODUCTS WHICH WERE CONSIDERED BUT WHOSE MOLE FRACTIONS
    WERE LESS THAN 5.000000E-06 FOR ALL ASSIGNED CONDITIONS



 NOTE. WEIGHT FRACTION OF FUEL IN TOTAL FUELS AND OF OXIDANT IN TOTAL OXIDANTS



