
 *******************************************************************************

         NASA-GLENN CHEMICAL EQUILIBRIUM PROGRAM CEA2, MAY 21, 2004
                   BY  BONNIE MCBRIDE AND SANFORD GORDON
      REFS: NASA RP-1311, PART I, 1994 AND NASA RP-1311, PART II, 1996

 *******************************************************************************



 problem   case=MonoN2O
       rocket  frozen  nfz=1  t,k=1000
   p,bar=5,
   pi/p=5.16,
 react
   oxid=N2O wt=1
 output    trace=
     plot t
 end

 OPTIONS: TP=F  HP=F  SP=F  TV=F  UV=F  SV=F  DETN=F  SHOCK=F  REFL=F  INCD=F
 RKT=T  FROZ=T  EQL=F  IONS=F  SIUNIT=T  DEBUGF=F  SHKDBG=F  DETDBG=F  TRNSPT=F

 T,K =  1000.0000

 TRACE= 0.00E+00  S/R= 0.000000E+00  H/R= 0.000000E+00  U/R= 0.000000E+00

 Pc,BAR =     5.000000

 Pc/P =     5.1600

 SUBSONIC AREA RATIOS =

 SUPERSONIC AREA RATIOS =

 NFZ=  1  Mdot/Ac= 0.000000E+00  Ac/At= 0.000000E+00

    REACTANT          WT.FRAC   (ENERGY/R),K   TEMP,K  DENSITY
        EXPLODED FORMULA
  : N2O              1.000000   0.000000E+00     0.00  0.0000
          N  2.00000  O  1.00000

  SPECIES BEING CONSIDERED IN THIS SYSTEM
 (CONDENSED PHASE MAY HAVE NAME LISTED SEVERAL TIMES)
  LAST thermo.inp UPDATE:    9/09/04

  g 5/97  *N               tpis89  *NO              g 4/99  NO2            
  j12/64  NO3              tpis78  *N2              g 4/99  N2O            
  g 4/99  N2O3             tpis89  N2O4             g 4/99  N2O5           
  tpis89  N3               g 5/97  *O               tpis89  *O2            
  g 8/01  O3             

 O/F =   0.000000

                       EFFECTIVE FUEL     EFFECTIVE OXIDANT        MIXTURE
 ENTHALPY                  h(2)/R              h(1)/R               h0/R
 (KG-MOL)(K)/KG        0.00000000E+00      0.00000000E+00      0.00000000E+00

 KG-FORM.WT./KG             bi(2)               bi(1)               b0i
  *N                   0.45441326E-01      0.45441326E-01      0.45441326E-01
  *O                   0.22720663E-01      0.22720663E-01      0.22720663E-01

 POINT ITN      T            N           O 
   1   14    1000.000     -11.829     -13.027





           THEORETICAL ROCKET PERFORMANCE ASSUMING FROZEN COMPOSITION
                         AT AN ASSIGNED TEMPERATURE  

 Pin =    72.5 PSIA
 CASE = MonoN2O        

             REACTANT                    WT FRACTION      ENERGY      TEMP
                                          (SEE NOTE)     KJ/KG-MOL      K  
             N2O                          1.0000000         0.000      0.000

 O/F=    0.00000  %FUEL=100.000000  R,EQ.RATIO= 0.000000  PHI,EQ.RATIO= 0.000000

                 CHAMBER   THROAT     EXIT
 Pinf/P            1.0000   1.8591   5.1600
 P, BAR            5.0000   2.6894  0.96899
 T, K             1000.00   855.34   655.28
 RHO, KG/CU M    1.7645 0 1.1096 0 5.2185-1
 H, KJ/KG          745.72   582.99   365.57
 U, KJ/KG          462.35   340.61   179.89
 G, KJ/KG        -6930.14 -5982.49 -4664.25
 S, KJ/(KG)(K)     7.6759   7.6759   7.6759

 M, (1/n)          29.342   29.342   29.342
 Cp, KJ/(KG)(K)    1.1392   1.1100   1.0624
 GAMMAs            1.3311   1.3428   1.3637
 SON VEL,M/SEC      614.2    570.5    503.2
 MACH NUMBER        0.000    1.000    1.733

 PERFORMANCE PARAMETERS

 Ae/At                      1.0000   1.3912
 CSTAR, M/SEC                789.9    789.9
 CF                         0.7223   1.1039
 Ivac, M/SEC                 995.3   1084.9
 Isp, M/SEC                  570.5    871.9

 MOLE FRACTIONS

 *NO             0.00004   NO2             0.00001   *N2             0.66665
 *O2             0.33331

  * THERMODYNAMIC PROPERTIES FITTED TO 20000.K

    PRODUCTS WHICH WERE CONSIDERED BUT WHOSE MOLE FRACTIONS
    WERE LESS THAN 5.000000E-06 FOR ALL ASSIGNED CONDITIONS



 NOTE. WEIGHT FRACTION OF FUEL IN TOTAL FUELS AND OF OXIDANT IN TOTAL OXIDANTS



