
 *******************************************************************************

         NASA-GLENN CHEMICAL EQUILIBRIUM PROGRAM CEA2, MAY 21, 2004
                   BY  BONNIE MCBRIDE AND SANFORD GORDON
      REFS: NASA RP-1311, PART I, 1994 AND NASA RP-1311, PART II, 1996

 *******************************************************************************



 problem   case=Parafina+GOX o/f=8,8.5,9,7,
       rocket  frozen  nfz=2  tcest,k=3800
   p,bar=25,
   pi/p=26.04,
 react
   oxid=O2 t,k=298.15
   fuel=Parafina
     h,kj/mol=-635.3  C 20 H 42
 output
      siunits massf
     plot %f o/f phi,eq.ratio r,eq.ratio isp cf
 end

 OPTIONS: TP=F  HP=F  SP=F  TV=F  UV=F  SV=F  DETN=F  SHOCK=F  REFL=F  INCD=F
 RKT=T  FROZ=T  EQL=F  IONS=F  SIUNIT=T  DEBUGF=F  SHKDBG=F  DETDBG=F  TRNSPT=F

 TRACE= 0.00E+00  S/R= 0.000000E+00  H/R= 0.000000E+00  U/R= 0.000000E+00

 Pc,BAR =    25.000000

 Pc/P =    26.0400

 SUBSONIC AREA RATIOS =

 SUPERSONIC AREA RATIOS =

 NFZ=  2  Mdot/Ac= 0.000000E+00  Ac/At= 0.000000E+00

 WARNING!!  AMOUNT MISSING FOR REACTANT  1.
 PROGRAM SETS WEIGHT PERCENT = 100. (REACT)

 WARNING!!  AMOUNT MISSING FOR REACTANT  2.
 PROGRAM SETS WEIGHT PERCENT = 100. (REACT)

    REACTANT          WT.FRAC   (ENERGY/R),K   TEMP,K  DENSITY
        EXPLODED FORMULA
 O: O2               1.000000  -0.154035E-05   298.15  0.0000
          O  2.00000
 F: Parafina         1.000000  -0.764086E+05     0.00  0.0000
          C 20.00000  H 42.00000

  SPECIES BEING CONSIDERED IN THIS SYSTEM
 (CONDENSED PHASE MAY HAVE NAME LISTED SEVERAL TIMES)
  LAST thermo.inp UPDATE:    9/09/04

  g 7/97  *C               tpis79  *CH              g 4/02  CH2            
  g 4/02  CH3              g11/00  CH2OH            g 7/00  CH3O           
  g 8/99  CH4              g 7/00  CH3OH            srd 01  CH3OOH         
  tpis79  *CO              g 9/99  *CO2             tpis91  COOH           
  tpis91  *C2              g 6/01  C2H              g 1/91  C2H2,acetylene 
  g 5/01  C2H2,vinylidene  g 4/02  CH2CO,ketene     g 3/02  O(CH)2O        
  srd 01  HO(CO)2OH        g 7/01  C2H3,vinyl       g 6/96  CH3CO,acetyl   
  g 1/00  C2H4             g 8/88  C2H4O,ethylen-o  g 8/88  CH3CHO,ethanal 
  g 6/00  CH3COOH          srd 01  OHCH2COOH        g 7/00  C2H5           
  g 7/00  C2H6             g 8/88  C2H5OH           g 7/00  CH3OCH3        
  srd 01  CH3O2CH3         g 8/00  C2O              tpis79  *C3            
  n 4/98  C3H3,1-propynl   n 4/98  C3H3,2-propynl   g 2/00  C3H4,allene    
  g 1/00  C3H4,propyne     g 5/90  C3H4,cyclo-      g 3/01  C3H5,allyl     
  g 2/00  C3H6,propylene   g 1/00  C3H6,cyclo-      g 6/01  C3H6O,propylox 
  g 6/97  C3H6O,acetone    g 1/02  C3H6O,propanal   g 7/01  C3H7,n-propyl  
  g 9/85  C3H7,i-propyl    g 2/00  C3H8             g 2/00  C3H8O,1propanol
  g 2/00  C3H8O,2propanol  g 7/88  C3O2             g tpis  *C4            
  g 7/01  C4H2,butadiyne   g 8/00  C4H4,1,3-cyclo-  n10/92  C4H6,butadiene 
  n10/93  C4H6,1butyne     n10/93  C4H6,2butyne     g 8/00  C4H6,cyclo-    
  n 4/88  C4H8,1-butene    n 4/88  C4H8,cis2-buten  n 4/88  C4H8,tr2-butene
  n 4/88  C4H8,isobutene   g 8/00  C4H8,cyclo-      g10/00  (CH3COOH)2     
  n10/84  C4H9,n-butyl     n10/84  C4H9,i-butyl     g 1/93  C4H9,s-butyl   
  g 1/93  C4H9,t-butyl     g12/00  C4H10,n-butane   g 8/00  C4H10,isobutane
  g 8/00  *C5              g 5/90  C5H6,1,3cyclo-   g 1/93  C5H8,cyclo-    
  n 4/87  C5H10,1-pentene  g 2/01  C5H10,cyclo-     n10/84  C5H11,pentyl   
  g 1/93  C5H11,t-pentyl   n10/85  C5H12,n-pentane  n10/85  C5H12,i-pentane
  n10/85  CH3C(CH3)2CH3    g 2/93  C6H2             g11/00  C6H5,phenyl    
  g 8/00  C6H5O,phenoxy    g 8/00  C6H6             g 8/00  C6H5OH,phenol  
  g 1/93  C6H10,cyclo-     n 4/87  C6H12,1-hexene   g 6/90  C6H12,cyclo-   
  n10/83  C6H13,n-hexyl    g 6/01  C6H14,n-hexane   g 7/01  C7H7,benzyl    
  g 1/93  C7H8             g12/00  C7H8O,cresol-mx  n 4/87  C7H14,1-heptene
  n10/83  C7H15,n-heptyl   n10/85  C7H16,n-heptane  n10/85  C7H16,2-methylh
  n 4/89  C8H8,styrene     n10/86  C8H10,ethylbenz  n 4/87  C8H16,1-octene 
  n10/83  C8H17,n-octyl    n 4/85  C8H18,n-octane   n 4/85  C8H18,isooctane
  n10/83  C9H19,n-nonyl    g 3/01  C10H8,naphthale  n10/83  C10H21,n-decyl 
  g 8/00  C12H9,o-bipheny  g 8/00  C12H10,biphenyl  g 6/97  *H             
  g 1/01  HCO              g 6/01  HCCO             g 4/02  HO2            
  tpis78  *H2              g 5/01  HCHO,formaldehy  g 6/01  HCOOH          
  g 8/89  H2O              g 6/99  H2O2             g 6/01  (HCOOH)2       
  g 5/97  *O               g 4/02  *OH              tpis89  *O2            
  g 8/01  O3               n 4/83  C(gr)            n 4/83  C(gr)          
  n 4/83  C(gr)            g11/99  H2O(cr)          g 8/01  H2O(L)         
  g 8/01  H2O(L)         

 O/F =   8.000000

                       EFFECTIVE FUEL     EFFECTIVE OXIDANT        MIXTURE
 ENTHALPY                  h(2)/R              h(1)/R               h0/R
 (KG-MOL)(K)/KG       -0.27042744E+03     -0.48137850E-07     -0.30047493E+02

 KG-FORM.WT./KG             bi(2)               bi(1)               b0i
  *O                   0.00000000E+00      0.62502344E-01      0.55557639E-01
  *C                   0.70784563E-01      0.00000000E+00      0.78649515E-02
  *H                   0.14864758E+00      0.00000000E+00      0.16516398E-01

 POINT ITN      T            O           C           H 
   1   26    3117.757     -13.994     -19.857     -11.632
 Pinf/Pt = 1.732449
   2    4    2949.766     -14.153     -20.566     -11.930
 Pinf/Pt = 1.732941
   2    2    2949.681     -14.153     -20.566     -11.930





           THEORETICAL ROCKET PERFORMANCE ASSUMING FROZEN COMPOSITION
                                 AFTER POINT 2

 Pin =   362.6 PSIA
 CASE = Parafina+GOX   

             REACTANT                    WT FRACTION      ENERGY      TEMP
                                          (SEE NOTE)     KJ/KG-MOL      K  
 OXIDANT     O2                           1.0000000         0.000    298.150
 FUEL        Parafina                     1.0000000   -635300.000      0.000

 O/F=    8.00000  %FUEL= 11.111111  R,EQ.RATIO= 0.431770  PHI,EQ.RATIO= 0.431770

                 CHAMBER   THROAT     EXIT
 Pinf/P            1.0000   1.7329   26.040
 P, BAR            25.000   14.426  0.96006
 T, K             3117.76  2949.68  1811.20
 RHO, KG/CU M    2.8861 0 1.7789 0 1.9280-1
 H, KJ/KG         -249.83  -710.74 -2454.86
 U, KJ/KG        -1116.04 -1521.69 -2952.81
 G, KJ/KG        -29182.2 -28083.4 -19262.5
 S, KJ/(KG)(K)     9.2799   9.2799   9.2799

 M, (1/n)          29.926   30.243   30.243
 Cp, KJ/(KG)(K)    3.8588   3.5473   1.4716
 GAMMAs            1.1360   1.1367   1.2297
 SON VEL,M/SEC      992.0    960.1    782.5
 MACH NUMBER        0.000    1.000    2.684

 PERFORMANCE PARAMETERS

 Ae/At                      1.0000   4.2184
 CSTAR, M/SEC               1463.7   1463.7
 CF                         0.6559   1.4347
 Ivac, M/SEC                1804.8   2337.1
 Isp, M/SEC                  960.1   2100.0

 MASS FRACTIONS

 *CO             0.02103   *CO2            0.31309   *H              0.00007
 HO2             0.00023   *H2             0.00021   H2O             0.13184
 H2O2            0.00001   *O              0.00907   *OH             0.02711
 *O2             0.49734

  * THERMODYNAMIC PROPERTIES FITTED TO 20000.K

    PRODUCTS WHICH WERE CONSIDERED BUT WHOSE MASS FRACTIONS
    WERE LESS THAN 5.000000E-06 FOR ALL ASSIGNED CONDITIONS



 NOTE. WEIGHT FRACTION OF FUEL IN TOTAL FUELS AND OF OXIDANT IN TOTAL OXIDANTS






 O/F =   8.500000

                       EFFECTIVE FUEL     EFFECTIVE OXIDANT        MIXTURE
 ENTHALPY                  h(2)/R              h(1)/R               h0/R
 (KG-MOL)(K)/KG       -0.27042744E+03     -0.48137850E-07     -0.28466046E+02

 KG-FORM.WT./KG             bi(2)               bi(1)               b0i
  *O                   0.00000000E+00      0.62502344E-01      0.55923150E-01
  *C                   0.70784563E-01      0.00000000E+00      0.74510067E-02
  *H                   0.14864758E+00      0.00000000E+00      0.15647114E-01

 POINT ITN      T            O           C           H 
   1    3    3066.192     -13.932     -20.155     -11.715
 Pinf/Pt = 1.734412
   2    4    2893.828     -14.087     -20.918     -12.027
 Pinf/Pt = 1.735736
   2    2    2893.592     -14.087     -20.919     -12.027





           THEORETICAL ROCKET PERFORMANCE ASSUMING FROZEN COMPOSITION
                                 AFTER POINT 2

 Pin =   362.6 PSIA
 CASE = Parafina+GOX   

             REACTANT                    WT FRACTION      ENERGY      TEMP
                                          (SEE NOTE)     KJ/KG-MOL      K  
 OXIDANT     O2                           1.0000000         0.000    298.150
 FUEL        Parafina                     1.0000000   -635300.000      0.000

 O/F=    8.50000  %FUEL= 10.526316  R,EQ.RATIO= 0.406371  PHI,EQ.RATIO= 0.406371

                 CHAMBER   THROAT     EXIT
 Pinf/P            1.0000   1.7357   26.040
 P, BAR            25.000   14.403  0.96006
 T, K             3066.19  2893.59  1771.87
 RHO, KG/CU M    2.9591 0 1.8242 0 1.9858-1
 H, KJ/KG         -236.68  -687.17 -2382.19
 U, KJ/KG        -1081.55 -1476.71 -2865.66
 G, KJ/KG        -28363.9 -27231.1 -18636.2
 S, KJ/(KG)(K)     9.1733   9.1733   9.1733

 M, (1/n)          30.175   30.472   30.472
 Cp, KJ/(KG)(K)    3.5460   3.2246   1.4509
 GAMMAs            1.1392   1.1411   1.2316
 SON VEL,M/SEC      981.1    949.2    771.7
 MACH NUMBER        0.000    1.000    2.684

 PERFORMANCE PARAMETERS

 Ae/At                      1.0000   4.2095
 CSTAR, M/SEC               1443.8   1443.8
 CF                         0.6574   1.4348
 Ivac, M/SEC                1781.0   2304.9
 Isp, M/SEC                  949.2   2071.5

 MASS FRACTIONS

 *CO             0.01594   *CO2            0.30287   *H              0.00005
 HO2             0.00021   *H2             0.00016   H2O             0.12646
 H2O2            0.00001   *O              0.00757   *OH             0.02366
 *O2             0.52307

  * THERMODYNAMIC PROPERTIES FITTED TO 20000.K

    PRODUCTS WHICH WERE CONSIDERED BUT WHOSE MASS FRACTIONS
    WERE LESS THAN 5.000000E-06 FOR ALL ASSIGNED CONDITIONS



 NOTE. WEIGHT FRACTION OF FUEL IN TOTAL FUELS AND OF OXIDANT IN TOTAL OXIDANTS






 O/F =   9.000000

                       EFFECTIVE FUEL     EFFECTIVE OXIDANT        MIXTURE
 ENTHALPY                  h(2)/R              h(1)/R               h0/R
 (KG-MOL)(K)/KG       -0.27042744E+03     -0.48137850E-07     -0.27042744E+02

 KG-FORM.WT./KG             bi(2)               bi(1)               b0i
  *O                   0.00000000E+00      0.62502344E-01      0.56252109E-01
  *C                   0.70784563E-01      0.00000000E+00      0.70784563E-02
  *H                   0.14864758E+00      0.00000000E+00      0.14864758E-01

 POINT ITN      T            O           C           H 
   1    3    3014.555     -13.873     -20.457     -11.798
 Pinf/Pt = 1.736616
   2    4    2837.441     -14.024     -21.278     -12.126
 Pinf/Pt = 1.738863
   2    2    2837.029     -14.024     -21.280     -12.127





           THEORETICAL ROCKET PERFORMANCE ASSUMING FROZEN COMPOSITION
                                 AFTER POINT 2

 Pin =   362.6 PSIA
 CASE = Parafina+GOX   

             REACTANT                    WT FRACTION      ENERGY      TEMP
                                          (SEE NOTE)     KJ/KG-MOL      K  
 OXIDANT     O2                           1.0000000         0.000    298.150
 FUEL        Parafina                     1.0000000   -635300.000      0.000

 O/F=    9.00000  %FUEL= 10.000000  R,EQ.RATIO= 0.383795  PHI,EQ.RATIO= 0.383795

                 CHAMBER   THROAT     EXIT
 Pinf/P            1.0000   1.7389   26.040
 P, BAR            25.000   14.377  0.96006
 T, K             3014.55  2837.03  1732.18
 RHO, KG/CU M    3.0313 0 1.8692 0 2.0443-1
 H, KJ/KG         -224.85  -665.62 -2313.71
 U, KJ/KG        -1049.59 -1434.80 -2783.34
 G, KJ/KG        -27584.6 -26414.2 -18034.8
 S, KJ/(KG)(K)     9.0759   9.0759   9.0759

 M, (1/n)          30.391   30.667   30.667
 Cp, KJ/(KG)(K)    3.2673   2.9426   1.4317
 GAMMAs            1.1428   1.1461   1.2336
 SON VEL,M/SEC      970.8    938.9    761.1
 MACH NUMBER        0.000    1.000    2.685

 PERFORMANCE PARAMETERS

 Ae/At                      1.0000   4.2001
 CSTAR, M/SEC               1424.5   1424.5
 CF                         0.6591   1.4348
 Ivac, M/SEC                1758.1   2273.7
 Isp, M/SEC                  938.9   2043.9

 MASS FRACTIONS

 *CO             0.01198   *CO2            0.29269   *H              0.00004
 HO2             0.00019   *H2             0.00012   H2O             0.12155
 H2O2            0.00001   *O              0.00624   *OH             0.02052
 *O2             0.54666

  * THERMODYNAMIC PROPERTIES FITTED TO 20000.K

    PRODUCTS WHICH WERE CONSIDERED BUT WHOSE MASS FRACTIONS
    WERE LESS THAN 5.000000E-06 FOR ALL ASSIGNED CONDITIONS



 NOTE. WEIGHT FRACTION OF FUEL IN TOTAL FUELS AND OF OXIDANT IN TOTAL OXIDANTS






 O/F =   7.000000

                       EFFECTIVE FUEL     EFFECTIVE OXIDANT        MIXTURE
 ENTHALPY                  h(2)/R              h(1)/R               h0/R
 (KG-MOL)(K)/KG       -0.27042744E+03     -0.48137850E-07     -0.33803430E+02

 KG-FORM.WT./KG             bi(2)               bi(1)               b0i
  *O                   0.00000000E+00      0.62502344E-01      0.54689551E-01
  *C                   0.70784563E-01      0.00000000E+00      0.88480704E-02
  *H                   0.14864758E+00      0.00000000E+00      0.18580948E-01

 POINT ITN      T            O           C           H 
   1    4    3220.518     -14.131     -19.265     -11.463
 Pinf/Pt = 1.729251
   2    3    3059.880     -14.297     -19.881     -11.737
 Pinf/Pt = 1.728381
   2    2    3060.024     -14.297     -19.880     -11.737





           THEORETICAL ROCKET PERFORMANCE ASSUMING FROZEN COMPOSITION
                                 AFTER POINT 2

 Pin =   362.6 PSIA
 CASE = Parafina+GOX   

             REACTANT                    WT FRACTION      ENERGY      TEMP
                                          (SEE NOTE)     KJ/KG-MOL      K  
 OXIDANT     O2                           1.0000000         0.000    298.150
 FUEL        Parafina                     1.0000000   -635300.000      0.000

 O/F=    7.00000  %FUEL= 12.500000  R,EQ.RATIO= 0.493451  PHI,EQ.RATIO= 0.493451

                 CHAMBER   THROAT     EXIT
 Pinf/P            1.0000   1.7284   26.040
 P, BAR            25.000   14.464  0.96006
 T, K             3220.52  3060.02  1888.18
 RHO, KG/CU M    2.7365 0 1.6862 0 1.8138-1
 H, KJ/KG         -281.06  -765.51 -2616.13
 U, KJ/KG        -1194.62 -1623.30 -3145.43
 G, KJ/KG        -30961.3 -29916.8 -20603.8
 S, KJ/(KG)(K)     9.5265   9.5265   9.5265

 M, (1/n)          29.311   29.660   29.660
 Cp, KJ/(KG)(K)    4.5994   4.3310   1.5184
 GAMMAs            1.1308   1.1295   1.2264
 SON VEL,M/SEC     1016.4    984.3    805.7
 MACH NUMBER        0.000    1.000    2.682

 PERFORMANCE PARAMETERS

 Ae/At                      1.0000   4.2344
 CSTAR, M/SEC               1506.2   1506.2
 CF                         0.6535   1.4348
 Ivac, M/SEC                1855.8   2406.0
 Isp, M/SEC                  984.3   2161.1

 MASS FRACTIONS

 *CO             0.03588   *CO2            0.33303   *H              0.00012
 HO2             0.00027   *H2             0.00036   H2O             0.14444
 H2O2            0.00001   *O              0.01252   *OH             0.03491
 *O2             0.43845

  * THERMODYNAMIC PROPERTIES FITTED TO 20000.K

    PRODUCTS WHICH WERE CONSIDERED BUT WHOSE MASS FRACTIONS
    WERE LESS THAN 5.000000E-06 FOR ALL ASSIGNED CONDITIONS



 NOTE. WEIGHT FRACTION OF FUEL IN TOTAL FUELS AND OF OXIDANT IN TOTAL OXIDANTS



