
 *******************************************************************************

         NASA-GLENN CHEMICAL EQUILIBRIUM PROGRAM CEA2, MAY 21, 2004
                   BY  BONNIE MCBRIDE AND SANFORD GORDON
      REFS: NASA RP-1311, PART I, 1994 AND NASA RP-1311, PART II, 1996

 *******************************************************************************



 problem
       tp   t,k=298.15,348.15,398.15,448.15,498.15,548.15,598.15,648.15,  p,bar=2
 41,241,241,241,241,241,241,241,
 react
   fuel=C8H18,n-octane
   oxid=Air
 end

 OPTIONS: TP=T  HP=F  SP=F  TV=F  UV=F  SV=F  DETN=F  SHOCK=F  REFL=F  INCD=F
 RKT=F  FROZ=F  EQL=F  IONS=F  SIUNIT=T  DEBUGF=F  SHKDBG=F  DETDBG=F  TRNSPT=F

 T,K =   298.1500   348.1500   398.1500   448.1500   498.1500   548.1500   598.1500

 T,K =   648.1500

 TRACE= 0.00E+00  S/R= 0.000000E+00  H/R= 0.000000E+00  U/R= 0.000000E+00

 P,BAR =   241.000000   241.000000   241.000000   241.000000   241.000000   241.000000   241.000000

 P,BAR =   241.000000

 WARNING!!  AMOUNT MISSING FOR REACTANT  1.
 PROGRAM SETS WEIGHT PERCENT = 100. (REACT)

 WARNING!!  AMOUNT MISSING FOR REACTANT  2.
 PROGRAM SETS WEIGHT PERCENT = 100. (REACT)

    REACTANT          WT.FRAC   (ENERGY/R),K   TEMP,K  DENSITY
        EXPLODED FORMULA
 F: C8H18,n-octane   1.000000   0.000000E+00     0.00  0.0000
          C  8.00000  H 18.00000
 O: Air              1.000000   0.000000E+00     0.00  0.0000
          N  1.56168  O  0.41959  AR 0.00937  C  0.00032

  SPECIES BEING CONSIDERED IN THIS SYSTEM
 (CONDENSED PHASE MAY HAVE NAME LISTED SEVERAL TIMES)
  LAST thermo.inp UPDATE:    9/09/04

  g 3/98  *Ar              g 7/97  *C               tpis79  *CH            
  g 4/02  CH2              g 4/02  CH3              g11/00  CH2OH          
  g 7/00  CH3O             g 8/99  CH4              g 7/00  CH3OH          
  srd 01  CH3OOH           g 8/99  *CN              g12/99  CNN            
  tpis79  *CO              g 9/99  *CO2             tpis91  COOH           
  tpis91  *C2              g 6/01  C2H              g 1/91  C2H2,acetylene 
  g 5/01  C2H2,vinylidene  g 4/02  CH2CO,ketene     g 3/02  O(CH)2O        
  srd 01  HO(CO)2OH        g 7/01  C2H3,vinyl       g 9/00  CH3CN          
  g 6/96  CH3CO,acetyl     g 1/00  C2H4             g 8/88  C2H4O,ethylen-o
  g 8/88  CH3CHO,ethanal   g 6/00  CH3COOH          srd 01  OHCH2COOH      
  g 7/00  C2H5             g 7/00  C2H6             g 8/88  CH3N2CH3       
  g 8/88  C2H5OH           g 7/00  CH3OCH3          srd 01  CH3O2CH3       
  g 7/00  CCN              tpis91  CNC              srd 01  OCCN           
  tpis79  C2N2             g 8/00  C2O              tpis79  *C3            
  n 4/98  C3H3,1-propynl   n 4/98  C3H3,2-propynl   g 2/00  C3H4,allene    
  g 1/00  C3H4,propyne     g 5/90  C3H4,cyclo-      g 3/01  C3H5,allyl     
  g 2/00  C3H6,propylene   g 1/00  C3H6,cyclo-      g 6/01  C3H6O,propylox 
  g 6/97  C3H6O,acetone    g 1/02  C3H6O,propanal   g 7/01  C3H7,n-propyl  
  g 9/85  C3H7,i-propyl    g 2/00  C3H8             g 2/00  C3H8O,1propanol
  g 2/00  C3H8O,2propanol  srd 01  CNCOCN           g 7/88  C3O2           
  g tpis  *C4              g 7/01  C4H2,butadiyne   g 8/00  C4H4,1,3-cyclo-
  n10/92  C4H6,butadiene   n10/93  C4H6,1butyne     n10/93  C4H6,2butyne   
  g 8/00  C4H6,cyclo-      n 4/88  C4H8,1-butene    n 4/88  C4H8,cis2-buten
  n 4/88  C4H8,tr2-butene  n 4/88  C4H8,isobutene   g 8/00  C4H8,cyclo-    
  g10/00  (CH3COOH)2       n10/84  C4H9,n-butyl     n10/84  C4H9,i-butyl   
  g 1/93  C4H9,s-butyl     g 1/93  C4H9,t-butyl     g12/00  C4H10,n-butane 
  g 8/00  C4H10,isobutane  g 6/01  C4N2             g 8/00  *C5            
  g 5/90  C5H6,1,3cyclo-   g 1/93  C5H8,cyclo-      n 4/87  C5H10,1-pentene
  g 2/01  C5H10,cyclo-     n10/84  C5H11,pentyl     g 1/93  C5H11,t-pentyl 
  n10/85  C5H12,n-pentane  n10/85  C5H12,i-pentane  n10/85  CH3C(CH3)2CH3  
  g 2/93  C6H2             g11/00  C6H5,phenyl      g 8/00  C6H5O,phenoxy  
  g 8/00  C6H6             g 8/00  C6H5OH,phenol    g 1/93  C6H10,cyclo-   
  n 4/87  C6H12,1-hexene   g 6/90  C6H12,cyclo-     n10/83  C6H13,n-hexyl  
  g 6/01  C6H14,n-hexane   g 7/01  C7H7,benzyl      g 1/93  C7H8           
  g12/00  C7H8O,cresol-mx  n 4/87  C7H14,1-heptene  n10/83  C7H15,n-heptyl 
  n10/85  C7H16,n-heptane  n10/85  C7H16,2-methylh  n 4/89  C8H8,styrene   
  n10/86  C8H10,ethylbenz  n 4/87  C8H16,1-octene   n10/83  C8H17,n-octyl  
  n 4/85  C8H18,n-octane   n 4/85  C8H18,isooctane  n10/83  C9H19,n-nonyl  
  g 3/01  C10H8,naphthale  n10/83  C10H21,n-decyl   g 8/00  C12H9,o-bipheny
  g 8/00  C12H10,biphenyl  g 6/97  *H               g 6/01  HCN            
  g 1/01  HCO              tpis89  HCCN             g 6/01  HCCO           
  g 6/01  HNC              g 7/00  HNCO             g10/01  HNO            
  tpis89  HNO2             g 5/99  HNO3             g 4/02  HO2            
  tpis78  *H2              g 5/01  HCHO,formaldehy  g 6/01  HCOOH          
  g 8/89  H2O              g 6/99  H2O2             g 6/01  (HCOOH)2       
  g 5/97  *N               g 6/01  NCO              g 4/99  *NH            
  g 3/01  NH2              tpis89  NH3              tpis89  NH2OH          
  tpis89  *NO              g 4/99  NO2              j12/64  NO3            
  tpis78  *N2              g 6/01  NCN              g 5/99  N2H2           
  tpis89  NH2NO2           g 4/99  N2H4             g 4/99  N2O            
  g 4/99  N2O3             tpis89  N2O4             g 4/99  N2O5           
  tpis89  N3               g 4/99  N3H              g 5/97  *O             
  g 4/02  *OH              tpis89  *O2              g 8/01  O3             
  n 4/83  C(gr)            n 4/83  C(gr)            n 4/83  C(gr)          
  g11/99  H2O(cr)          g 8/01  H2O(L)           g 8/01  H2O(L)         

 O/F =   1.000000

                       EFFECTIVE FUEL     EFFECTIVE OXIDANT        MIXTURE
 ENTHALPY                  h(2)/R              h(1)/R               h0/R
 (KG-MOL)(K)/KG        0.00000000E+00      0.00000000E+00      0.00000000E+00

 KG-FORM.WT./KG             bi(2)               bi(1)               b0i
  *C                   0.70035049E-01      0.11013248E-04      0.35023031E-01
  *H                   0.15757886E+00      0.00000000E+00      0.78789430E-01
  *N                   0.00000000E+00      0.53915890E-01      0.26957945E-01
  *O                   0.00000000E+00      0.14486046E-01      0.72430230E-02
  *Ar                  0.00000000E+00      0.32331996E-03      0.16165998E-03

 POINT ITN      T            C           H           N           O 
                    AR
   1   21     298.150      14.813     -15.647      -9.264     -98.031
                 -18.530
 ADD  C(gr)          
   1   12     298.150      -0.690     -11.791      -9.285     -92.830
                 -18.571
 ADD  H2O(L)         
   1    5     298.150      -0.690     -11.737      -9.176    -100.240
                 -18.353
   2    4     348.150      -0.702     -10.667      -9.197     -85.925
                 -18.383
   3    5     398.150      -0.734      -9.882      -9.247     -75.337
                 -18.457
   4    4     448.150      -0.778      -9.289      -9.322     -67.207
                 -18.570
   5    4     498.150      -0.831      -8.836      -9.423     -60.773
                 -18.733
   6    5     548.150      -0.890      -8.493      -9.567     -55.552
                 -18.978
 REMOVE  H2O(L)         
   6    2     548.150      -0.890      -8.488      -9.555     -55.648
                 -18.954
   7    3     598.150      -0.954      -8.184      -9.629     -52.015
                 -19.059
   8    3     648.150      -1.022      -7.935      -9.705     -48.959
                 -19.166




               THERMODYNAMIC EQUILIBRIUM PROPERTIES AT ASSIGNED

                           TEMPERATURE AND PRESSURE

 CASE =                

             REACTANT                    WT FRACTION      ENERGY      TEMP
                                          (SEE NOTE)     KJ/KG-MOL      K  
 FUEL        C8H18,n-octane               1.0000000         0.000      0.000
 OXIDANT     Air                          1.0000000         0.000      0.000

 O/F=    1.00000  %FUEL= 50.000000  R,EQ.RATIO=15.109821  PHI,EQ.RATIO=15.131308

 THERMODYNAMIC PROPERTIES

 P, BAR            241.00   241.00   241.00   241.00   241.00   241.00   241.00   241.00
 T, K              298.15   348.15   398.15   448.15   498.15   548.15   598.15   648.15
 RHO, KG/CU M    3.2713 2 2.7976 2 2.4272 2 2.1008 2 1.7708 2 1.4298 2 1.3089 2 1.2057 2
 H, KJ/KG        -3269.27 -3181.88 -3083.23 -2959.88 -2789.27 -2553.04 -2458.78 -2358.12
 U, KJ/KG        -3342.94 -3268.03 -3182.52 -3074.59 -2925.36 -2721.60 -2642.90 -2558.00
 G, KJ/KG        -4772.72 -5031.70 -5303.93 -5589.90 -5891.92 -6214.96 -6553.11 -6899.41
 S, KJ/(KG)(K)     5.0426   5.3133   5.5775   5.8686   6.2284   6.6805   6.8450   7.0065

 M, (1/n)          33.649   33.602   33.341   32.481   30.433   27.039   27.011   26.960
 MW, MOL WT        17.886   17.884   17.883   17.881   17.899   18.036   18.047   18.038
 (dLV/dLP)t      -1.00015 -1.00163 -1.00956 -1.03659 -1.10927 -1.00060 -1.00119 -1.00219
 (dLV/dLT)p        1.0021   1.0227   1.1141   1.3701   1.9435   1.0082   1.0169   1.0310
 Cp, KJ/(KG)(K)    1.6884   1.8281   2.1631   2.8418   4.1236   1.8272   1.9462   2.0837
 GAMMAs            1.1721   1.1627   1.1541   1.1527   1.1641   1.2055   1.1938   1.1836
 SON VEL,M/SEC      293.8    316.5    338.5    363.7    398.0    450.8    468.8    486.4

 MOLE FRACTIONS

 *Ar              0.00289  0.00289  0.00289  0.00289  0.00289  0.00292  0.00292  0.00292
 CH4              0.28741  0.28730  0.28714  0.28699  0.28770  0.29361  0.29399  0.29344
 *CO              0.00000  0.00000  0.00000  0.00000  0.00000  0.00000  0.00001  0.00002
 *CO2             0.00000  0.00000  0.00000  0.00007  0.00079  0.00507  0.00619  0.00727
 C2H6             0.00000  0.00000  0.00000  0.00000  0.00001  0.00001  0.00002  0.00003
 *H2              0.00000  0.00001  0.00004  0.00017  0.00051  0.00134  0.00286  0.00546
 H2O              0.00007  0.00085  0.00503  0.01908  0.05460  0.12049  0.11832  0.11609
 NH3              0.00015  0.00027  0.00042  0.00059  0.00077  0.00096  0.00117  0.00138
 *N2              0.24100  0.24093  0.24083  0.24072  0.24088  0.24263  0.24267  0.24244
 C(gr)            0.33900  0.33907  0.33916  0.33919  0.33839  0.33297  0.33185  0.33095
 H2O(L)           0.12948  0.12869  0.12449  0.11030  0.07346  0.00000  0.00000  0.00000

  * THERMODYNAMIC PROPERTIES FITTED TO 20000.K

    PRODUCTS WHICH WERE CONSIDERED BUT WHOSE MOLE FRACTIONS
    WERE LESS THAN 5.000000E-06 FOR ALL ASSIGNED CONDITIONS

 *C              *CH             CH2             CH3             CH2OH          
 CH3O            CH3OH           CH3OOH          *CN             CNN            
 COOH            *C2             C2H             C2H2,acetylene  C2H2,vinylidene
 CH2CO,ketene    O(CH)2O         HO(CO)2OH       C2H3,vinyl      CH3CN          
 CH3CO,acetyl    C2H4            C2H4O,ethylen-o CH3CHO,ethanal  CH3COOH        
 OHCH2COOH       C2H5            CH3N2CH3        C2H5OH          CH3OCH3        
 CH3O2CH3        CCN             CNC             OCCN            C2N2           
 C2O             *C3             C3H3,1-propynl  C3H3,2-propynl  C3H4,allene    
 C3H4,propyne    C3H4,cyclo-     C3H5,allyl      C3H6,propylene  C3H6,cyclo-    
 C3H6O,propylox  C3H6O,acetone   C3H6O,propanal  C3H7,n-propyl   C3H7,i-propyl  
 C3H8            C3H8O,1propanol C3H8O,2propanol CNCOCN          C3O2           
 *C4             C4H2,butadiyne  C4H4,1,3-cyclo- C4H6,butadiene  C4H6,1butyne   
 C4H6,2butyne    C4H6,cyclo-     C4H8,1-butene   C4H8,cis2-buten C4H8,tr2-butene
 C4H8,isobutene  C4H8,cyclo-     (CH3COOH)2      C4H9,n-butyl    C4H9,i-butyl   
 C4H9,s-butyl    C4H9,t-butyl    C4H10,n-butane  C4H10,isobutane C4N2           
 *C5             C5H6,1,3cyclo-  C5H8,cyclo-     C5H10,1-pentene C5H10,cyclo-   
 C5H11,pentyl    C5H11,t-pentyl  C5H12,n-pentane C5H12,i-pentane CH3C(CH3)2CH3  
 C6H2            C6H5,phenyl     C6H5O,phenoxy   C6H6            C6H5OH,phenol  
 C6H10,cyclo-    C6H12,1-hexene  C6H12,cyclo-    C6H13,n-hexyl   C6H14,n-hexane 
 C7H7,benzyl     C7H8            C7H8O,cresol-mx C7H14,1-heptene C7H15,n-heptyl 
 C7H16,n-heptane C7H16,2-methylh C8H8,styrene    C8H10,ethylbenz C8H16,1-octene 
 C8H17,n-octyl   C8H18,n-octane  C8H18,isooctane C9H19,n-nonyl   C10H8,naphthale
 C10H21,n-decyl  C12H9,o-bipheny C12H10,biphenyl *H              HCN            
 HCO             HCCN            HCCO            HNC             HNCO           
 HNO             HNO2            HNO3            HO2             HCHO,formaldehy
 HCOOH           H2O2            (HCOOH)2        *N              NCO            
 *NH             NH2             NH2OH           *NO             NO2            
 NO3             NCN             N2H2            NH2NO2          N2H4           
 N2O             N2O3            N2O4            N2O5            N3             
 N3H             *O              *OH             *O2             O3             
 H2O(cr)        

 NOTE. WEIGHT FRACTION OF FUEL IN TOTAL FUELS AND OF OXIDANT IN TOTAL OXIDANTS






 POINT ITN      T            C           H           N           O 
                    AR
   1    1     298.150      -0.690     -11.737      -9.176    -100.240
                 -18.353
   2    4     348.150      -0.702     -10.667      -9.197     -85.925
                 -18.383
   3    5     398.150      -0.734      -9.882      -9.247     -75.337
                 -18.457
   4    4     448.150      -0.778      -9.289      -9.322     -67.207
                 -18.570
   5    4     498.150      -0.831      -8.836      -9.423     -60.773
                 -18.733
   6    5     548.150      -0.890      -8.493      -9.567     -55.552
                 -18.978
 REMOVE  H2O(L)         
   6    2     548.150      -0.890      -8.488      -9.555     -55.648
                 -18.954
   7    3     598.150      -0.954      -8.184      -9.629     -52.015
                 -19.059
   8    3     648.150      -1.022      -7.935      -9.705     -48.959
                 -19.166




               THERMODYNAMIC EQUILIBRIUM PROPERTIES AT ASSIGNED

                           TEMPERATURE AND PRESSURE

 CASE =                

             REACTANT                    WT FRACTION      ENERGY      TEMP
                                          (SEE NOTE)     KJ/KG-MOL      K  
 FUEL        C8H18,n-octane               1.0000000         0.000      0.000
 OXIDANT     Air                          1.0000000         0.000      0.000

 O/F=    1.00000  %FUEL= 50.000000  R,EQ.RATIO=15.109821  PHI,EQ.RATIO=15.131308

 THERMODYNAMIC PROPERTIES

 P, BAR            241.00   241.00   241.00   241.00   241.00   241.00   241.00   241.00
 T, K              298.15   348.15   398.15   448.15   498.15   548.15   598.15   648.15
 RHO, KG/CU M    3.2713 2 2.7976 2 2.4272 2 2.1008 2 1.7708 2 1.4298 2 1.3089 2 1.2057 2
 H, KJ/KG        -3269.27 -3181.88 -3083.23 -2959.88 -2789.27 -2553.04 -2458.78 -2358.12
 U, KJ/KG        -3342.94 -3268.03 -3182.52 -3074.59 -2925.36 -2721.60 -2642.90 -2558.00
 G, KJ/KG        -4772.72 -5031.70 -5303.93 -5589.90 -5891.92 -6214.96 -6553.11 -6899.41
 S, KJ/(KG)(K)     5.0426   5.3133   5.5775   5.8686   6.2284   6.6805   6.8450   7.0065

 M, (1/n)          33.649   33.602   33.341   32.481   30.433   27.039   27.011   26.960
 MW, MOL WT        17.886   17.884   17.883   17.881   17.899   18.036   18.047   18.038
 (dLV/dLP)t      -1.00015 -1.00163 -1.00956 -1.03659 -1.10927 -1.00060 -1.00119 -1.00219
 (dLV/dLT)p        1.0021   1.0227   1.1141   1.3701   1.9435   1.0082   1.0169   1.0310
 Cp, KJ/(KG)(K)    1.6884   1.8281   2.1631   2.8418   4.1236   1.8272   1.9462   2.0837
 GAMMAs            1.1721   1.1627   1.1541   1.1527   1.1641   1.2055   1.1938   1.1836
 SON VEL,M/SEC      293.8    316.5    338.5    363.7    398.0    450.8    468.8    486.4

 MOLE FRACTIONS

 *Ar              0.00289  0.00289  0.00289  0.00289  0.00289  0.00292  0.00292  0.00292
 CH4              0.28741  0.28730  0.28714  0.28699  0.28770  0.29361  0.29399  0.29344
 *CO              0.00000  0.00000  0.00000  0.00000  0.00000  0.00000  0.00001  0.00002
 *CO2             0.00000  0.00000  0.00000  0.00007  0.00079  0.00507  0.00619  0.00727
 C2H6             0.00000  0.00000  0.00000  0.00000  0.00001  0.00001  0.00002  0.00003
 *H2              0.00000  0.00001  0.00004  0.00017  0.00051  0.00134  0.00286  0.00546
 H2O              0.00007  0.00085  0.00503  0.01908  0.05460  0.12049  0.11832  0.11609
 NH3              0.00015  0.00027  0.00042  0.00059  0.00077  0.00096  0.00117  0.00138
 *N2              0.24100  0.24093  0.24083  0.24072  0.24088  0.24263  0.24267  0.24244
 C(gr)            0.33900  0.33907  0.33916  0.33919  0.33839  0.33297  0.33185  0.33095
 H2O(L)           0.12948  0.12869  0.12449  0.11030  0.07346  0.00000  0.00000  0.00000

  * THERMODYNAMIC PROPERTIES FITTED TO 20000.K

    PRODUCTS WHICH WERE CONSIDERED BUT WHOSE MOLE FRACTIONS
    WERE LESS THAN 5.000000E-06 FOR ALL ASSIGNED CONDITIONS

 *C              *CH             CH2             CH3             CH2OH          
 CH3O            CH3OH           CH3OOH          *CN             CNN            
 COOH            *C2             C2H             C2H2,acetylene  C2H2,vinylidene
 CH2CO,ketene    O(CH)2O         HO(CO)2OH       C2H3,vinyl      CH3CN          
 CH3CO,acetyl    C2H4            C2H4O,ethylen-o CH3CHO,ethanal  CH3COOH        
 OHCH2COOH       C2H5            CH3N2CH3        C2H5OH          CH3OCH3        
 CH3O2CH3        CCN             CNC             OCCN            C2N2           
 C2O             *C3             C3H3,1-propynl  C3H3,2-propynl  C3H4,allene    
 C3H4,propyne    C3H4,cyclo-     C3H5,allyl      C3H6,propylene  C3H6,cyclo-    
 C3H6O,propylox  C3H6O,acetone   C3H6O,propanal  C3H7,n-propyl   C3H7,i-propyl  
 C3H8            C3H8O,1propanol C3H8O,2propanol CNCOCN          C3O2           
 *C4             C4H2,butadiyne  C4H4,1,3-cyclo- C4H6,butadiene  C4H6,1butyne   
 C4H6,2butyne    C4H6,cyclo-     C4H8,1-butene   C4H8,cis2-buten C4H8,tr2-butene
 C4H8,isobutene  C4H8,cyclo-     (CH3COOH)2      C4H9,n-butyl    C4H9,i-butyl   
 C4H9,s-butyl    C4H9,t-butyl    C4H10,n-butane  C4H10,isobutane C4N2           
 *C5             C5H6,1,3cyclo-  C5H8,cyclo-     C5H10,1-pentene C5H10,cyclo-   
 C5H11,pentyl    C5H11,t-pentyl  C5H12,n-pentane C5H12,i-pentane CH3C(CH3)2CH3  
 C6H2            C6H5,phenyl     C6H5O,phenoxy   C6H6            C6H5OH,phenol  
 C6H10,cyclo-    C6H12,1-hexene  C6H12,cyclo-    C6H13,n-hexyl   C6H14,n-hexane 
 C7H7,benzyl     C7H8            C7H8O,cresol-mx C7H14,1-heptene C7H15,n-heptyl 
 C7H16,n-heptane C7H16,2-methylh C8H8,styrene    C8H10,ethylbenz C8H16,1-octene 
 C8H17,n-octyl   C8H18,n-octane  C8H18,isooctane C9H19,n-nonyl   C10H8,naphthale
 C10H21,n-decyl  C12H9,o-bipheny C12H10,biphenyl *H              HCN            
 HCO             HCCN            HCCO            HNC             HNCO           
 HNO             HNO2            HNO3            HO2             HCHO,formaldehy
 HCOOH           H2O2            (HCOOH)2        *N              NCO            
 *NH             NH2             NH2OH           *NO             NO2            
 NO3             NCN             N2H2            NH2NO2          N2H4           
 N2O             N2O3            N2O4            N2O5            N3             
 N3H             *O              *OH             *O2             O3             
 H2O(cr)        

 NOTE. WEIGHT FRACTION OF FUEL IN TOTAL FUELS AND OF OXIDANT IN TOTAL OXIDANTS






 POINT ITN      T            C           H           N           O 
                    AR
   1    1     298.150      -0.690     -11.737      -9.176    -100.240
                 -18.353
   2    4     348.150      -0.702     -10.667      -9.197     -85.925
                 -18.383
   3    5     398.150      -0.734      -9.882      -9.247     -75.337
                 -18.457
   4    4     448.150      -0.778      -9.289      -9.322     -67.207
                 -18.570
   5    4     498.150      -0.831      -8.836      -9.423     -60.773
                 -18.733
   6    5     548.150      -0.890      -8.493      -9.567     -55.552
                 -18.978
 REMOVE  H2O(L)         
   6    2     548.150      -0.890      -8.488      -9.555     -55.648
                 -18.954
   7    3     598.150      -0.954      -8.184      -9.629     -52.015
                 -19.059
   8    3     648.150      -1.022      -7.935      -9.705     -48.959
                 -19.166




               THERMODYNAMIC EQUILIBRIUM PROPERTIES AT ASSIGNED

                           TEMPERATURE AND PRESSURE

 CASE =                

             REACTANT                    WT FRACTION      ENERGY      TEMP
                                          (SEE NOTE)     KJ/KG-MOL      K  
 FUEL        C8H18,n-octane               1.0000000         0.000      0.000
 OXIDANT     Air                          1.0000000         0.000      0.000

 O/F=    1.00000  %FUEL= 50.000000  R,EQ.RATIO=15.109821  PHI,EQ.RATIO=15.131308

 THERMODYNAMIC PROPERTIES

 P, BAR            241.00   241.00   241.00   241.00   241.00   241.00   241.00   241.00
 T, K              298.15   348.15   398.15   448.15   498.15   548.15   598.15   648.15
 RHO, KG/CU M    3.2713 2 2.7976 2 2.4272 2 2.1008 2 1.7708 2 1.4298 2 1.3089 2 1.2057 2
 H, KJ/KG        -3269.27 -3181.88 -3083.23 -2959.88 -2789.27 -2553.04 -2458.78 -2358.12
 U, KJ/KG        -3342.94 -3268.03 -3182.52 -3074.59 -2925.36 -2721.60 -2642.90 -2558.00
 G, KJ/KG        -4772.72 -5031.70 -5303.93 -5589.90 -5891.92 -6214.96 -6553.11 -6899.41
 S, KJ/(KG)(K)     5.0426   5.3133   5.5775   5.8686   6.2284   6.6805   6.8450   7.0065

 M, (1/n)          33.649   33.602   33.341   32.481   30.433   27.039   27.011   26.960
 MW, MOL WT        17.886   17.884   17.883   17.881   17.899   18.036   18.047   18.038
 (dLV/dLP)t      -1.00015 -1.00163 -1.00956 -1.03659 -1.10927 -1.00060 -1.00119 -1.00219
 (dLV/dLT)p        1.0021   1.0227   1.1141   1.3701   1.9435   1.0082   1.0169   1.0310
 Cp, KJ/(KG)(K)    1.6884   1.8281   2.1631   2.8418   4.1236   1.8272   1.9462   2.0837
 GAMMAs            1.1721   1.1627   1.1541   1.1527   1.1641   1.2055   1.1938   1.1836
 SON VEL,M/SEC      293.8    316.5    338.5    363.7    398.0    450.8    468.8    486.4

 MOLE FRACTIONS

 *Ar              0.00289  0.00289  0.00289  0.00289  0.00289  0.00292  0.00292  0.00292
 CH4              0.28741  0.28730  0.28714  0.28699  0.28770  0.29361  0.29399  0.29344
 *CO              0.00000  0.00000  0.00000  0.00000  0.00000  0.00000  0.00001  0.00002
 *CO2             0.00000  0.00000  0.00000  0.00007  0.00079  0.00507  0.00619  0.00727
 C2H6             0.00000  0.00000  0.00000  0.00000  0.00001  0.00001  0.00002  0.00003
 *H2              0.00000  0.00001  0.00004  0.00017  0.00051  0.00134  0.00286  0.00546
 H2O              0.00007  0.00085  0.00503  0.01908  0.05460  0.12049  0.11832  0.11609
 NH3              0.00015  0.00027  0.00042  0.00059  0.00077  0.00096  0.00117  0.00138
 *N2              0.24100  0.24093  0.24083  0.24072  0.24088  0.24263  0.24267  0.24244
 C(gr)            0.33900  0.33907  0.33916  0.33919  0.33839  0.33297  0.33185  0.33095
 H2O(L)           0.12948  0.12869  0.12449  0.11030  0.07346  0.00000  0.00000  0.00000

  * THERMODYNAMIC PROPERTIES FITTED TO 20000.K

    PRODUCTS WHICH WERE CONSIDERED BUT WHOSE MOLE FRACTIONS
    WERE LESS THAN 5.000000E-06 FOR ALL ASSIGNED CONDITIONS

 *C              *CH             CH2             CH3             CH2OH          
 CH3O            CH3OH           CH3OOH          *CN             CNN            
 COOH            *C2             C2H             C2H2,acetylene  C2H2,vinylidene
 CH2CO,ketene    O(CH)2O         HO(CO)2OH       C2H3,vinyl      CH3CN          
 CH3CO,acetyl    C2H4            C2H4O,ethylen-o CH3CHO,ethanal  CH3COOH        
 OHCH2COOH       C2H5            CH3N2CH3        C2H5OH          CH3OCH3        
 CH3O2CH3        CCN             CNC             OCCN            C2N2           
 C2O             *C3             C3H3,1-propynl  C3H3,2-propynl  C3H4,allene    
 C3H4,propyne    C3H4,cyclo-     C3H5,allyl      C3H6,propylene  C3H6,cyclo-    
 C3H6O,propylox  C3H6O,acetone   C3H6O,propanal  C3H7,n-propyl   C3H7,i-propyl  
 C3H8            C3H8O,1propanol C3H8O,2propanol CNCOCN          C3O2           
 *C4             C4H2,butadiyne  C4H4,1,3-cyclo- C4H6,butadiene  C4H6,1butyne   
 C4H6,2butyne    C4H6,cyclo-     C4H8,1-butene   C4H8,cis2-buten C4H8,tr2-butene
 C4H8,isobutene  C4H8,cyclo-     (CH3COOH)2      C4H9,n-butyl    C4H9,i-butyl   
 C4H9,s-butyl    C4H9,t-butyl    C4H10,n-butane  C4H10,isobutane C4N2           
 *C5             C5H6,1,3cyclo-  C5H8,cyclo-     C5H10,1-pentene C5H10,cyclo-   
 C5H11,pentyl    C5H11,t-pentyl  C5H12,n-pentane C5H12,i-pentane CH3C(CH3)2CH3  
 C6H2            C6H5,phenyl     C6H5O,phenoxy   C6H6            C6H5OH,phenol  
 C6H10,cyclo-    C6H12,1-hexene  C6H12,cyclo-    C6H13,n-hexyl   C6H14,n-hexane 
 C7H7,benzyl     C7H8            C7H8O,cresol-mx C7H14,1-heptene C7H15,n-heptyl 
 C7H16,n-heptane C7H16,2-methylh C8H8,styrene    C8H10,ethylbenz C8H16,1-octene 
 C8H17,n-octyl   C8H18,n-octane  C8H18,isooctane C9H19,n-nonyl   C10H8,naphthale
 C10H21,n-decyl  C12H9,o-bipheny C12H10,biphenyl *H              HCN            
 HCO             HCCN            HCCO            HNC             HNCO           
 HNO             HNO2            HNO3            HO2             HCHO,formaldehy
 HCOOH           H2O2            (HCOOH)2        *N              NCO            
 *NH             NH2             NH2OH           *NO             NO2            
 NO3             NCN             N2H2            NH2NO2          N2H4           
 N2O             N2O3            N2O4            N2O5            N3             
 N3H             *O              *OH             *O2             O3             
 H2O(cr)        

 NOTE. WEIGHT FRACTION OF FUEL IN TOTAL FUELS AND OF OXIDANT IN TOTAL OXIDANTS






 POINT ITN      T            C           H           N           O 
                    AR
   1    1     298.150      -0.690     -11.737      -9.176    -100.240
                 -18.353
   2    4     348.150      -0.702     -10.667      -9.197     -85.925
                 -18.383
   3    5     398.150      -0.734      -9.882      -9.247     -75.337
                 -18.457
   4    4     448.150      -0.778      -9.289      -9.322     -67.207
                 -18.570
   5    4     498.150      -0.831      -8.836      -9.423     -60.773
                 -18.733
   6    5     548.150      -0.890      -8.493      -9.567     -55.552
                 -18.978
 REMOVE  H2O(L)         
   6    2     548.150      -0.890      -8.488      -9.555     -55.648
                 -18.954
   7    3     598.150      -0.954      -8.184      -9.629     -52.015
                 -19.059
   8    3     648.150      -1.022      -7.935      -9.705     -48.959
                 -19.166




               THERMODYNAMIC EQUILIBRIUM PROPERTIES AT ASSIGNED

                           TEMPERATURE AND PRESSURE

 CASE =                

             REACTANT                    WT FRACTION      ENERGY      TEMP
                                          (SEE NOTE)     KJ/KG-MOL      K  
 FUEL        C8H18,n-octane               1.0000000         0.000      0.000
 OXIDANT     Air                          1.0000000         0.000      0.000

 O/F=    1.00000  %FUEL= 50.000000  R,EQ.RATIO=15.109821  PHI,EQ.RATIO=15.131308

 THERMODYNAMIC PROPERTIES

 P, BAR            241.00   241.00   241.00   241.00   241.00   241.00   241.00   241.00
 T, K              298.15   348.15   398.15   448.15   498.15   548.15   598.15   648.15
 RHO, KG/CU M    3.2713 2 2.7976 2 2.4272 2 2.1008 2 1.7708 2 1.4298 2 1.3089 2 1.2057 2
 H, KJ/KG        -3269.27 -3181.88 -3083.23 -2959.88 -2789.27 -2553.04 -2458.78 -2358.12
 U, KJ/KG        -3342.94 -3268.03 -3182.52 -3074.59 -2925.36 -2721.60 -2642.90 -2558.00
 G, KJ/KG        -4772.72 -5031.70 -5303.93 -5589.90 -5891.92 -6214.96 -6553.11 -6899.41
 S, KJ/(KG)(K)     5.0426   5.3133   5.5775   5.8686   6.2284   6.6805   6.8450   7.0065

 M, (1/n)          33.649   33.602   33.341   32.481   30.433   27.039   27.011   26.960
 MW, MOL WT        17.886   17.884   17.883   17.881   17.899   18.036   18.047   18.038
 (dLV/dLP)t      -1.00015 -1.00163 -1.00956 -1.03659 -1.10927 -1.00060 -1.00119 -1.00219
 (dLV/dLT)p        1.0021   1.0227   1.1141   1.3701   1.9435   1.0082   1.0169   1.0310
 Cp, KJ/(KG)(K)    1.6884   1.8281   2.1631   2.8418   4.1236   1.8272   1.9462   2.0837
 GAMMAs            1.1721   1.1627   1.1541   1.1527   1.1641   1.2055   1.1938   1.1836
 SON VEL,M/SEC      293.8    316.5    338.5    363.7    398.0    450.8    468.8    486.4

 MOLE FRACTIONS

 *Ar              0.00289  0.00289  0.00289  0.00289  0.00289  0.00292  0.00292  0.00292
 CH4              0.28741  0.28730  0.28714  0.28699  0.28770  0.29361  0.29399  0.29344
 *CO              0.00000  0.00000  0.00000  0.00000  0.00000  0.00000  0.00001  0.00002
 *CO2             0.00000  0.00000  0.00000  0.00007  0.00079  0.00507  0.00619  0.00727
 C2H6             0.00000  0.00000  0.00000  0.00000  0.00001  0.00001  0.00002  0.00003
 *H2              0.00000  0.00001  0.00004  0.00017  0.00051  0.00134  0.00286  0.00546
 H2O              0.00007  0.00085  0.00503  0.01908  0.05460  0.12049  0.11832  0.11609
 NH3              0.00015  0.00027  0.00042  0.00059  0.00077  0.00096  0.00117  0.00138
 *N2              0.24100  0.24093  0.24083  0.24072  0.24088  0.24263  0.24267  0.24244
 C(gr)            0.33900  0.33907  0.33916  0.33919  0.33839  0.33297  0.33185  0.33095
 H2O(L)           0.12948  0.12869  0.12449  0.11030  0.07346  0.00000  0.00000  0.00000

  * THERMODYNAMIC PROPERTIES FITTED TO 20000.K

    PRODUCTS WHICH WERE CONSIDERED BUT WHOSE MOLE FRACTIONS
    WERE LESS THAN 5.000000E-06 FOR ALL ASSIGNED CONDITIONS

 *C              *CH             CH2             CH3             CH2OH          
 CH3O            CH3OH           CH3OOH          *CN             CNN            
 COOH            *C2             C2H             C2H2,acetylene  C2H2,vinylidene
 CH2CO,ketene    O(CH)2O         HO(CO)2OH       C2H3,vinyl      CH3CN          
 CH3CO,acetyl    C2H4            C2H4O,ethylen-o CH3CHO,ethanal  CH3COOH        
 OHCH2COOH       C2H5            CH3N2CH3        C2H5OH          CH3OCH3        
 CH3O2CH3        CCN             CNC             OCCN            C2N2           
 C2O             *C3             C3H3,1-propynl  C3H3,2-propynl  C3H4,allene    
 C3H4,propyne    C3H4,cyclo-     C3H5,allyl      C3H6,propylene  C3H6,cyclo-    
 C3H6O,propylox  C3H6O,acetone   C3H6O,propanal  C3H7,n-propyl   C3H7,i-propyl  
 C3H8            C3H8O,1propanol C3H8O,2propanol CNCOCN          C3O2           
 *C4             C4H2,butadiyne  C4H4,1,3-cyclo- C4H6,butadiene  C4H6,1butyne   
 C4H6,2butyne    C4H6,cyclo-     C4H8,1-butene   C4H8,cis2-buten C4H8,tr2-butene
 C4H8,isobutene  C4H8,cyclo-     (CH3COOH)2      C4H9,n-butyl    C4H9,i-butyl   
 C4H9,s-butyl    C4H9,t-butyl    C4H10,n-butane  C4H10,isobutane C4N2           
 *C5             C5H6,1,3cyclo-  C5H8,cyclo-     C5H10,1-pentene C5H10,cyclo-   
 C5H11,pentyl    C5H11,t-pentyl  C5H12,n-pentane C5H12,i-pentane CH3C(CH3)2CH3  
 C6H2            C6H5,phenyl     C6H5O,phenoxy   C6H6            C6H5OH,phenol  
 C6H10,cyclo-    C6H12,1-hexene  C6H12,cyclo-    C6H13,n-hexyl   C6H14,n-hexane 
 C7H7,benzyl     C7H8            C7H8O,cresol-mx C7H14,1-heptene C7H15,n-heptyl 
 C7H16,n-heptane C7H16,2-methylh C8H8,styrene    C8H10,ethylbenz C8H16,1-octene 
 C8H17,n-octyl   C8H18,n-octane  C8H18,isooctane C9H19,n-nonyl   C10H8,naphthale
 C10H21,n-decyl  C12H9,o-bipheny C12H10,biphenyl *H              HCN            
 HCO             HCCN            HCCO            HNC             HNCO           
 HNO             HNO2            HNO3            HO2             HCHO,formaldehy
 HCOOH           H2O2            (HCOOH)2        *N              NCO            
 *NH             NH2             NH2OH           *NO             NO2            
 NO3             NCN             N2H2            NH2NO2          N2H4           
 N2O             N2O3            N2O4            N2O5            N3             
 N3H             *O              *OH             *O2             O3             
 H2O(cr)        

 NOTE. WEIGHT FRACTION OF FUEL IN TOTAL FUELS AND OF OXIDANT IN TOTAL OXIDANTS






 POINT ITN      T            C           H           N           O 
                    AR
   1    1     298.150      -0.690     -11.737      -9.176    -100.240
                 -18.353
   2    4     348.150      -0.702     -10.667      -9.197     -85.925
                 -18.383
   3    5     398.150      -0.734      -9.882      -9.247     -75.337
                 -18.457
   4    4     448.150      -0.778      -9.289      -9.322     -67.207
                 -18.570
   5    4     498.150      -0.831      -8.836      -9.423     -60.773
                 -18.733
   6    5     548.150      -0.890      -8.493      -9.567     -55.552
                 -18.978
 REMOVE  H2O(L)         
   6    2     548.150      -0.890      -8.488      -9.555     -55.648
                 -18.954
   7    3     598.150      -0.954      -8.184      -9.629     -52.015
                 -19.059
   8    3     648.150      -1.022      -7.935      -9.705     -48.959
                 -19.166




               THERMODYNAMIC EQUILIBRIUM PROPERTIES AT ASSIGNED

                           TEMPERATURE AND PRESSURE

 CASE =                

             REACTANT                    WT FRACTION      ENERGY      TEMP
                                          (SEE NOTE)     KJ/KG-MOL      K  
 FUEL        C8H18,n-octane               1.0000000         0.000      0.000
 OXIDANT     Air                          1.0000000         0.000      0.000

 O/F=    1.00000  %FUEL= 50.000000  R,EQ.RATIO=15.109821  PHI,EQ.RATIO=15.131308

 THERMODYNAMIC PROPERTIES

 P, BAR            241.00   241.00   241.00   241.00   241.00   241.00   241.00   241.00
 T, K              298.15   348.15   398.15   448.15   498.15   548.15   598.15   648.15
 RHO, KG/CU M    3.2713 2 2.7976 2 2.4272 2 2.1008 2 1.7708 2 1.4298 2 1.3089 2 1.2057 2
 H, KJ/KG        -3269.27 -3181.88 -3083.23 -2959.88 -2789.27 -2553.04 -2458.78 -2358.12
 U, KJ/KG        -3342.94 -3268.03 -3182.52 -3074.59 -2925.36 -2721.60 -2642.90 -2558.00
 G, KJ/KG        -4772.72 -5031.70 -5303.93 -5589.90 -5891.92 -6214.96 -6553.11 -6899.41
 S, KJ/(KG)(K)     5.0426   5.3133   5.5775   5.8686   6.2284   6.6805   6.8450   7.0065

 M, (1/n)          33.649   33.602   33.341   32.481   30.433   27.039   27.011   26.960
 MW, MOL WT        17.886   17.884   17.883   17.881   17.899   18.036   18.047   18.038
 (dLV/dLP)t      -1.00015 -1.00163 -1.00956 -1.03659 -1.10927 -1.00060 -1.00119 -1.00219
 (dLV/dLT)p        1.0021   1.0227   1.1141   1.3701   1.9435   1.0082   1.0169   1.0310
 Cp, KJ/(KG)(K)    1.6884   1.8281   2.1631   2.8418   4.1236   1.8272   1.9462   2.0837
 GAMMAs            1.1721   1.1627   1.1541   1.1527   1.1641   1.2055   1.1938   1.1836
 SON VEL,M/SEC      293.8    316.5    338.5    363.7    398.0    450.8    468.8    486.4

 MOLE FRACTIONS

 *Ar              0.00289  0.00289  0.00289  0.00289  0.00289  0.00292  0.00292  0.00292
 CH4              0.28741  0.28730  0.28714  0.28699  0.28770  0.29361  0.29399  0.29344
 *CO              0.00000  0.00000  0.00000  0.00000  0.00000  0.00000  0.00001  0.00002
 *CO2             0.00000  0.00000  0.00000  0.00007  0.00079  0.00507  0.00619  0.00727
 C2H6             0.00000  0.00000  0.00000  0.00000  0.00001  0.00001  0.00002  0.00003
 *H2              0.00000  0.00001  0.00004  0.00017  0.00051  0.00134  0.00286  0.00546
 H2O              0.00007  0.00085  0.00503  0.01908  0.05460  0.12049  0.11832  0.11609
 NH3              0.00015  0.00027  0.00042  0.00059  0.00077  0.00096  0.00117  0.00138
 *N2              0.24100  0.24093  0.24083  0.24072  0.24088  0.24263  0.24267  0.24244
 C(gr)            0.33900  0.33907  0.33916  0.33919  0.33839  0.33297  0.33185  0.33095
 H2O(L)           0.12948  0.12869  0.12449  0.11030  0.07346  0.00000  0.00000  0.00000

  * THERMODYNAMIC PROPERTIES FITTED TO 20000.K

    PRODUCTS WHICH WERE CONSIDERED BUT WHOSE MOLE FRACTIONS
    WERE LESS THAN 5.000000E-06 FOR ALL ASSIGNED CONDITIONS

 *C              *CH             CH2             CH3             CH2OH          
 CH3O            CH3OH           CH3OOH          *CN             CNN            
 COOH            *C2             C2H             C2H2,acetylene  C2H2,vinylidene
 CH2CO,ketene    O(CH)2O         HO(CO)2OH       C2H3,vinyl      CH3CN          
 CH3CO,acetyl    C2H4            C2H4O,ethylen-o CH3CHO,ethanal  CH3COOH        
 OHCH2COOH       C2H5            CH3N2CH3        C2H5OH          CH3OCH3        
 CH3O2CH3        CCN             CNC             OCCN            C2N2           
 C2O             *C3             C3H3,1-propynl  C3H3,2-propynl  C3H4,allene    
 C3H4,propyne    C3H4,cyclo-     C3H5,allyl      C3H6,propylene  C3H6,cyclo-    
 C3H6O,propylox  C3H6O,acetone   C3H6O,propanal  C3H7,n-propyl   C3H7,i-propyl  
 C3H8            C3H8O,1propanol C3H8O,2propanol CNCOCN          C3O2           
 *C4             C4H2,butadiyne  C4H4,1,3-cyclo- C4H6,butadiene  C4H6,1butyne   
 C4H6,2butyne    C4H6,cyclo-     C4H8,1-butene   C4H8,cis2-buten C4H8,tr2-butene
 C4H8,isobutene  C4H8,cyclo-     (CH3COOH)2      C4H9,n-butyl    C4H9,i-butyl   
 C4H9,s-butyl    C4H9,t-butyl    C4H10,n-butane  C4H10,isobutane C4N2           
 *C5             C5H6,1,3cyclo-  C5H8,cyclo-     C5H10,1-pentene C5H10,cyclo-   
 C5H11,pentyl    C5H11,t-pentyl  C5H12,n-pentane C5H12,i-pentane CH3C(CH3)2CH3  
 C6H2            C6H5,phenyl     C6H5O,phenoxy   C6H6            C6H5OH,phenol  
 C6H10,cyclo-    C6H12,1-hexene  C6H12,cyclo-    C6H13,n-hexyl   C6H14,n-hexane 
 C7H7,benzyl     C7H8            C7H8O,cresol-mx C7H14,1-heptene C7H15,n-heptyl 
 C7H16,n-heptane C7H16,2-methylh C8H8,styrene    C8H10,ethylbenz C8H16,1-octene 
 C8H17,n-octyl   C8H18,n-octane  C8H18,isooctane C9H19,n-nonyl   C10H8,naphthale
 C10H21,n-decyl  C12H9,o-bipheny C12H10,biphenyl *H              HCN            
 HCO             HCCN            HCCO            HNC             HNCO           
 HNO             HNO2            HNO3            HO2             HCHO,formaldehy
 HCOOH           H2O2            (HCOOH)2        *N              NCO            
 *NH             NH2             NH2OH           *NO             NO2            
 NO3             NCN             N2H2            NH2NO2          N2H4           
 N2O             N2O3            N2O4            N2O5            N3             
 N3H             *O              *OH             *O2             O3             
 H2O(cr)        

 NOTE. WEIGHT FRACTION OF FUEL IN TOTAL FUELS AND OF OXIDANT IN TOTAL OXIDANTS






 POINT ITN      T            C           H           N           O 
                    AR
   1    1     298.150      -0.690     -11.737      -9.176    -100.240
                 -18.353
   2    4     348.150      -0.702     -10.667      -9.197     -85.925
                 -18.383
   3    5     398.150      -0.734      -9.882      -9.247     -75.337
                 -18.457
   4    4     448.150      -0.778      -9.289      -9.322     -67.207
                 -18.570
   5    4     498.150      -0.831      -8.836      -9.423     -60.773
                 -18.733
   6    5     548.150      -0.890      -8.493      -9.567     -55.552
                 -18.978
 REMOVE  H2O(L)         
   6    2     548.150      -0.890      -8.488      -9.555     -55.648
                 -18.954
   7    3     598.150      -0.954      -8.184      -9.629     -52.015
                 -19.059
   8    3     648.150      -1.022      -7.935      -9.705     -48.959
                 -19.166




               THERMODYNAMIC EQUILIBRIUM PROPERTIES AT ASSIGNED

                           TEMPERATURE AND PRESSURE

 CASE =                

             REACTANT                    WT FRACTION      ENERGY      TEMP
                                          (SEE NOTE)     KJ/KG-MOL      K  
 FUEL        C8H18,n-octane               1.0000000         0.000      0.000
 OXIDANT     Air                          1.0000000         0.000      0.000

 O/F=    1.00000  %FUEL= 50.000000  R,EQ.RATIO=15.109821  PHI,EQ.RATIO=15.131308

 THERMODYNAMIC PROPERTIES

 P, BAR            241.00   241.00   241.00   241.00   241.00   241.00   241.00   241.00
 T, K              298.15   348.15   398.15   448.15   498.15   548.15   598.15   648.15
 RHO, KG/CU M    3.2713 2 2.7976 2 2.4272 2 2.1008 2 1.7708 2 1.4298 2 1.3089 2 1.2057 2
 H, KJ/KG        -3269.27 -3181.88 -3083.23 -2959.88 -2789.27 -2553.04 -2458.78 -2358.12
 U, KJ/KG        -3342.94 -3268.03 -3182.52 -3074.59 -2925.36 -2721.60 -2642.90 -2558.00
 G, KJ/KG        -4772.72 -5031.70 -5303.93 -5589.90 -5891.92 -6214.96 -6553.11 -6899.41
 S, KJ/(KG)(K)     5.0426   5.3133   5.5775   5.8686   6.2284   6.6805   6.8450   7.0065

 M, (1/n)          33.649   33.602   33.341   32.481   30.433   27.039   27.011   26.960
 MW, MOL WT        17.886   17.884   17.883   17.881   17.899   18.036   18.047   18.038
 (dLV/dLP)t      -1.00015 -1.00163 -1.00956 -1.03659 -1.10927 -1.00060 -1.00119 -1.00219
 (dLV/dLT)p        1.0021   1.0227   1.1141   1.3701   1.9435   1.0082   1.0169   1.0310
 Cp, KJ/(KG)(K)    1.6884   1.8281   2.1631   2.8418   4.1236   1.8272   1.9462   2.0837
 GAMMAs            1.1721   1.1627   1.1541   1.1527   1.1641   1.2055   1.1938   1.1836
 SON VEL,M/SEC      293.8    316.5    338.5    363.7    398.0    450.8    468.8    486.4

 MOLE FRACTIONS

 *Ar              0.00289  0.00289  0.00289  0.00289  0.00289  0.00292  0.00292  0.00292
 CH4              0.28741  0.28730  0.28714  0.28699  0.28770  0.29361  0.29399  0.29344
 *CO              0.00000  0.00000  0.00000  0.00000  0.00000  0.00000  0.00001  0.00002
 *CO2             0.00000  0.00000  0.00000  0.00007  0.00079  0.00507  0.00619  0.00727
 C2H6             0.00000  0.00000  0.00000  0.00000  0.00001  0.00001  0.00002  0.00003
 *H2              0.00000  0.00001  0.00004  0.00017  0.00051  0.00134  0.00286  0.00546
 H2O              0.00007  0.00085  0.00503  0.01908  0.05460  0.12049  0.11832  0.11609
 NH3              0.00015  0.00027  0.00042  0.00059  0.00077  0.00096  0.00117  0.00138
 *N2              0.24100  0.24093  0.24083  0.24072  0.24088  0.24263  0.24267  0.24244
 C(gr)            0.33900  0.33907  0.33916  0.33919  0.33839  0.33297  0.33185  0.33095
 H2O(L)           0.12948  0.12869  0.12449  0.11030  0.07346  0.00000  0.00000  0.00000

  * THERMODYNAMIC PROPERTIES FITTED TO 20000.K

    PRODUCTS WHICH WERE CONSIDERED BUT WHOSE MOLE FRACTIONS
    WERE LESS THAN 5.000000E-06 FOR ALL ASSIGNED CONDITIONS

 *C              *CH             CH2             CH3             CH2OH          
 CH3O            CH3OH           CH3OOH          *CN             CNN            
 COOH            *C2             C2H             C2H2,acetylene  C2H2,vinylidene
 CH2CO,ketene    O(CH)2O         HO(CO)2OH       C2H3,vinyl      CH3CN          
 CH3CO,acetyl    C2H4            C2H4O,ethylen-o CH3CHO,ethanal  CH3COOH        
 OHCH2COOH       C2H5            CH3N2CH3        C2H5OH          CH3OCH3        
 CH3O2CH3        CCN             CNC             OCCN            C2N2           
 C2O             *C3             C3H3,1-propynl  C3H3,2-propynl  C3H4,allene    
 C3H4,propyne    C3H4,cyclo-     C3H5,allyl      C3H6,propylene  C3H6,cyclo-    
 C3H6O,propylox  C3H6O,acetone   C3H6O,propanal  C3H7,n-propyl   C3H7,i-propyl  
 C3H8            C3H8O,1propanol C3H8O,2propanol CNCOCN          C3O2           
 *C4             C4H2,butadiyne  C4H4,1,3-cyclo- C4H6,butadiene  C4H6,1butyne   
 C4H6,2butyne    C4H6,cyclo-     C4H8,1-butene   C4H8,cis2-buten C4H8,tr2-butene
 C4H8,isobutene  C4H8,cyclo-     (CH3COOH)2      C4H9,n-butyl    C4H9,i-butyl   
 C4H9,s-butyl    C4H9,t-butyl    C4H10,n-butane  C4H10,isobutane C4N2           
 *C5             C5H6,1,3cyclo-  C5H8,cyclo-     C5H10,1-pentene C5H10,cyclo-   
 C5H11,pentyl    C5H11,t-pentyl  C5H12,n-pentane C5H12,i-pentane CH3C(CH3)2CH3  
 C6H2            C6H5,phenyl     C6H5O,phenoxy   C6H6            C6H5OH,phenol  
 C6H10,cyclo-    C6H12,1-hexene  C6H12,cyclo-    C6H13,n-hexyl   C6H14,n-hexane 
 C7H7,benzyl     C7H8            C7H8O,cresol-mx C7H14,1-heptene C7H15,n-heptyl 
 C7H16,n-heptane C7H16,2-methylh C8H8,styrene    C8H10,ethylbenz C8H16,1-octene 
 C8H17,n-octyl   C8H18,n-octane  C8H18,isooctane C9H19,n-nonyl   C10H8,naphthale
 C10H21,n-decyl  C12H9,o-bipheny C12H10,biphenyl *H              HCN            
 HCO             HCCN            HCCO            HNC             HNCO           
 HNO             HNO2            HNO3            HO2             HCHO,formaldehy
 HCOOH           H2O2            (HCOOH)2        *N              NCO            
 *NH             NH2             NH2OH           *NO             NO2            
 NO3             NCN             N2H2            NH2NO2          N2H4           
 N2O             N2O3            N2O4            N2O5            N3             
 N3H             *O              *OH             *O2             O3             
 H2O(cr)        

 NOTE. WEIGHT FRACTION OF FUEL IN TOTAL FUELS AND OF OXIDANT IN TOTAL OXIDANTS






 POINT ITN      T            C           H           N           O 
                    AR
   1    1     298.150      -0.690     -11.737      -9.176    -100.240
                 -18.353
   2    4     348.150      -0.702     -10.667      -9.197     -85.925
                 -18.383
   3    5     398.150      -0.734      -9.882      -9.247     -75.337
                 -18.457
   4    4     448.150      -0.778      -9.289      -9.322     -67.207
                 -18.570
   5    4     498.150      -0.831      -8.836      -9.423     -60.773
                 -18.733
   6    5     548.150      -0.890      -8.493      -9.567     -55.552
                 -18.978
 REMOVE  H2O(L)         
   6    2     548.150      -0.890      -8.488      -9.555     -55.648
                 -18.954
   7    3     598.150      -0.954      -8.184      -9.629     -52.015
                 -19.059
   8    3     648.150      -1.022      -7.935      -9.705     -48.959
                 -19.166




               THERMODYNAMIC EQUILIBRIUM PROPERTIES AT ASSIGNED

                           TEMPERATURE AND PRESSURE

 CASE =                

             REACTANT                    WT FRACTION      ENERGY      TEMP
                                          (SEE NOTE)     KJ/KG-MOL      K  
 FUEL        C8H18,n-octane               1.0000000         0.000      0.000
 OXIDANT     Air                          1.0000000         0.000      0.000

 O/F=    1.00000  %FUEL= 50.000000  R,EQ.RATIO=15.109821  PHI,EQ.RATIO=15.131308

 THERMODYNAMIC PROPERTIES

 P, BAR            241.00   241.00   241.00   241.00   241.00   241.00   241.00   241.00
 T, K              298.15   348.15   398.15   448.15   498.15   548.15   598.15   648.15
 RHO, KG/CU M    3.2713 2 2.7976 2 2.4272 2 2.1008 2 1.7708 2 1.4298 2 1.3089 2 1.2057 2
 H, KJ/KG        -3269.27 -3181.88 -3083.23 -2959.88 -2789.27 -2553.04 -2458.78 -2358.12
 U, KJ/KG        -3342.94 -3268.03 -3182.52 -3074.59 -2925.36 -2721.60 -2642.90 -2558.00
 G, KJ/KG        -4772.72 -5031.70 -5303.93 -5589.90 -5891.92 -6214.96 -6553.11 -6899.41
 S, KJ/(KG)(K)     5.0426   5.3133   5.5775   5.8686   6.2284   6.6805   6.8450   7.0065

 M, (1/n)          33.649   33.602   33.341   32.481   30.433   27.039   27.011   26.960
 MW, MOL WT        17.886   17.884   17.883   17.881   17.899   18.036   18.047   18.038
 (dLV/dLP)t      -1.00015 -1.00163 -1.00956 -1.03659 -1.10927 -1.00060 -1.00119 -1.00219
 (dLV/dLT)p        1.0021   1.0227   1.1141   1.3701   1.9435   1.0082   1.0169   1.0310
 Cp, KJ/(KG)(K)    1.6884   1.8281   2.1631   2.8418   4.1236   1.8272   1.9462   2.0837
 GAMMAs            1.1721   1.1627   1.1541   1.1527   1.1641   1.2055   1.1938   1.1836
 SON VEL,M/SEC      293.8    316.5    338.5    363.7    398.0    450.8    468.8    486.4

 MOLE FRACTIONS

 *Ar              0.00289  0.00289  0.00289  0.00289  0.00289  0.00292  0.00292  0.00292
 CH4              0.28741  0.28730  0.28714  0.28699  0.28770  0.29361  0.29399  0.29344
 *CO              0.00000  0.00000  0.00000  0.00000  0.00000  0.00000  0.00001  0.00002
 *CO2             0.00000  0.00000  0.00000  0.00007  0.00079  0.00507  0.00619  0.00727
 C2H6             0.00000  0.00000  0.00000  0.00000  0.00001  0.00001  0.00002  0.00003
 *H2              0.00000  0.00001  0.00004  0.00017  0.00051  0.00134  0.00286  0.00546
 H2O              0.00007  0.00085  0.00503  0.01908  0.05460  0.12049  0.11832  0.11609
 NH3              0.00015  0.00027  0.00042  0.00059  0.00077  0.00096  0.00117  0.00138
 *N2              0.24100  0.24093  0.24083  0.24072  0.24088  0.24263  0.24267  0.24244
 C(gr)            0.33900  0.33907  0.33916  0.33919  0.33839  0.33297  0.33185  0.33095
 H2O(L)           0.12948  0.12869  0.12449  0.11030  0.07346  0.00000  0.00000  0.00000

  * THERMODYNAMIC PROPERTIES FITTED TO 20000.K

    PRODUCTS WHICH WERE CONSIDERED BUT WHOSE MOLE FRACTIONS
    WERE LESS THAN 5.000000E-06 FOR ALL ASSIGNED CONDITIONS

 *C              *CH             CH2             CH3             CH2OH          
 CH3O            CH3OH           CH3OOH          *CN             CNN            
 COOH            *C2             C2H             C2H2,acetylene  C2H2,vinylidene
 CH2CO,ketene    O(CH)2O         HO(CO)2OH       C2H3,vinyl      CH3CN          
 CH3CO,acetyl    C2H4            C2H4O,ethylen-o CH3CHO,ethanal  CH3COOH        
 OHCH2COOH       C2H5            CH3N2CH3        C2H5OH          CH3OCH3        
 CH3O2CH3        CCN             CNC             OCCN            C2N2           
 C2O             *C3             C3H3,1-propynl  C3H3,2-propynl  C3H4,allene    
 C3H4,propyne    C3H4,cyclo-     C3H5,allyl      C3H6,propylene  C3H6,cyclo-    
 C3H6O,propylox  C3H6O,acetone   C3H6O,propanal  C3H7,n-propyl   C3H7,i-propyl  
 C3H8            C3H8O,1propanol C3H8O,2propanol CNCOCN          C3O2           
 *C4             C4H2,butadiyne  C4H4,1,3-cyclo- C4H6,butadiene  C4H6,1butyne   
 C4H6,2butyne    C4H6,cyclo-     C4H8,1-butene   C4H8,cis2-buten C4H8,tr2-butene
 C4H8,isobutene  C4H8,cyclo-     (CH3COOH)2      C4H9,n-butyl    C4H9,i-butyl   
 C4H9,s-butyl    C4H9,t-butyl    C4H10,n-butane  C4H10,isobutane C4N2           
 *C5             C5H6,1,3cyclo-  C5H8,cyclo-     C5H10,1-pentene C5H10,cyclo-   
 C5H11,pentyl    C5H11,t-pentyl  C5H12,n-pentane C5H12,i-pentane CH3C(CH3)2CH3  
 C6H2            C6H5,phenyl     C6H5O,phenoxy   C6H6            C6H5OH,phenol  
 C6H10,cyclo-    C6H12,1-hexene  C6H12,cyclo-    C6H13,n-hexyl   C6H14,n-hexane 
 C7H7,benzyl     C7H8            C7H8O,cresol-mx C7H14,1-heptene C7H15,n-heptyl 
 C7H16,n-heptane C7H16,2-methylh C8H8,styrene    C8H10,ethylbenz C8H16,1-octene 
 C8H17,n-octyl   C8H18,n-octane  C8H18,isooctane C9H19,n-nonyl   C10H8,naphthale
 C10H21,n-decyl  C12H9,o-bipheny C12H10,biphenyl *H              HCN            
 HCO             HCCN            HCCO            HNC             HNCO           
 HNO             HNO2            HNO3            HO2             HCHO,formaldehy
 HCOOH           H2O2            (HCOOH)2        *N              NCO            
 *NH             NH2             NH2OH           *NO             NO2            
 NO3             NCN             N2H2            NH2NO2          N2H4           
 N2O             N2O3            N2O4            N2O5            N3             
 N3H             *O              *OH             *O2             O3             
 H2O(cr)        

 NOTE. WEIGHT FRACTION OF FUEL IN TOTAL FUELS AND OF OXIDANT IN TOTAL OXIDANTS






 POINT ITN      T            C           H           N           O 
                    AR
   1    1     298.150      -0.690     -11.737      -9.176    -100.240
                 -18.353
   2    4     348.150      -0.702     -10.667      -9.197     -85.925
                 -18.383
   3    5     398.150      -0.734      -9.882      -9.247     -75.337
                 -18.457
   4    4     448.150      -0.778      -9.289      -9.322     -67.207
                 -18.570
   5    4     498.150      -0.831      -8.836      -9.423     -60.773
                 -18.733
   6    5     548.150      -0.890      -8.493      -9.567     -55.552
                 -18.978
 REMOVE  H2O(L)         
   6    2     548.150      -0.890      -8.488      -9.555     -55.648
                 -18.954
   7    3     598.150      -0.954      -8.184      -9.629     -52.015
                 -19.059
   8    3     648.150      -1.022      -7.935      -9.705     -48.959
                 -19.166




               THERMODYNAMIC EQUILIBRIUM PROPERTIES AT ASSIGNED

                           TEMPERATURE AND PRESSURE

 CASE =                

             REACTANT                    WT FRACTION      ENERGY      TEMP
                                          (SEE NOTE)     KJ/KG-MOL      K  
 FUEL        C8H18,n-octane               1.0000000         0.000      0.000
 OXIDANT     Air                          1.0000000         0.000      0.000

 O/F=    1.00000  %FUEL= 50.000000  R,EQ.RATIO=15.109821  PHI,EQ.RATIO=15.131308

 THERMODYNAMIC PROPERTIES

 P, BAR            241.00   241.00   241.00   241.00   241.00   241.00   241.00   241.00
 T, K              298.15   348.15   398.15   448.15   498.15   548.15   598.15   648.15
 RHO, KG/CU M    3.2713 2 2.7976 2 2.4272 2 2.1008 2 1.7708 2 1.4298 2 1.3089 2 1.2057 2
 H, KJ/KG        -3269.27 -3181.88 -3083.23 -2959.88 -2789.27 -2553.04 -2458.78 -2358.12
 U, KJ/KG        -3342.94 -3268.03 -3182.52 -3074.59 -2925.36 -2721.60 -2642.90 -2558.00
 G, KJ/KG        -4772.72 -5031.70 -5303.93 -5589.90 -5891.92 -6214.96 -6553.11 -6899.41
 S, KJ/(KG)(K)     5.0426   5.3133   5.5775   5.8686   6.2284   6.6805   6.8450   7.0065

 M, (1/n)          33.649   33.602   33.341   32.481   30.433   27.039   27.011   26.960
 MW, MOL WT        17.886   17.884   17.883   17.881   17.899   18.036   18.047   18.038
 (dLV/dLP)t      -1.00015 -1.00163 -1.00956 -1.03659 -1.10927 -1.00060 -1.00119 -1.00219
 (dLV/dLT)p        1.0021   1.0227   1.1141   1.3701   1.9435   1.0082   1.0169   1.0310
 Cp, KJ/(KG)(K)    1.6884   1.8281   2.1631   2.8418   4.1236   1.8272   1.9462   2.0837
 GAMMAs            1.1721   1.1627   1.1541   1.1527   1.1641   1.2055   1.1938   1.1836
 SON VEL,M/SEC      293.8    316.5    338.5    363.7    398.0    450.8    468.8    486.4

 MOLE FRACTIONS

 *Ar              0.00289  0.00289  0.00289  0.00289  0.00289  0.00292  0.00292  0.00292
 CH4              0.28741  0.28730  0.28714  0.28699  0.28770  0.29361  0.29399  0.29344
 *CO              0.00000  0.00000  0.00000  0.00000  0.00000  0.00000  0.00001  0.00002
 *CO2             0.00000  0.00000  0.00000  0.00007  0.00079  0.00507  0.00619  0.00727
 C2H6             0.00000  0.00000  0.00000  0.00000  0.00001  0.00001  0.00002  0.00003
 *H2              0.00000  0.00001  0.00004  0.00017  0.00051  0.00134  0.00286  0.00546
 H2O              0.00007  0.00085  0.00503  0.01908  0.05460  0.12049  0.11832  0.11609
 NH3              0.00015  0.00027  0.00042  0.00059  0.00077  0.00096  0.00117  0.00138
 *N2              0.24100  0.24093  0.24083  0.24072  0.24088  0.24263  0.24267  0.24244
 C(gr)            0.33900  0.33907  0.33916  0.33919  0.33839  0.33297  0.33185  0.33095
 H2O(L)           0.12948  0.12869  0.12449  0.11030  0.07346  0.00000  0.00000  0.00000

  * THERMODYNAMIC PROPERTIES FITTED TO 20000.K

    PRODUCTS WHICH WERE CONSIDERED BUT WHOSE MOLE FRACTIONS
    WERE LESS THAN 5.000000E-06 FOR ALL ASSIGNED CONDITIONS

 *C              *CH             CH2             CH3             CH2OH          
 CH3O            CH3OH           CH3OOH          *CN             CNN            
 COOH            *C2             C2H             C2H2,acetylene  C2H2,vinylidene
 CH2CO,ketene    O(CH)2O         HO(CO)2OH       C2H3,vinyl      CH3CN          
 CH3CO,acetyl    C2H4            C2H4O,ethylen-o CH3CHO,ethanal  CH3COOH        
 OHCH2COOH       C2H5            CH3N2CH3        C2H5OH          CH3OCH3        
 CH3O2CH3        CCN             CNC             OCCN            C2N2           
 C2O             *C3             C3H3,1-propynl  C3H3,2-propynl  C3H4,allene    
 C3H4,propyne    C3H4,cyclo-     C3H5,allyl      C3H6,propylene  C3H6,cyclo-    
 C3H6O,propylox  C3H6O,acetone   C3H6O,propanal  C3H7,n-propyl   C3H7,i-propyl  
 C3H8            C3H8O,1propanol C3H8O,2propanol CNCOCN          C3O2           
 *C4             C4H2,butadiyne  C4H4,1,3-cyclo- C4H6,butadiene  C4H6,1butyne   
 C4H6,2butyne    C4H6,cyclo-     C4H8,1-butene   C4H8,cis2-buten C4H8,tr2-butene
 C4H8,isobutene  C4H8,cyclo-     (CH3COOH)2      C4H9,n-butyl    C4H9,i-butyl   
 C4H9,s-butyl    C4H9,t-butyl    C4H10,n-butane  C4H10,isobutane C4N2           
 *C5             C5H6,1,3cyclo-  C5H8,cyclo-     C5H10,1-pentene C5H10,cyclo-   
 C5H11,pentyl    C5H11,t-pentyl  C5H12,n-pentane C5H12,i-pentane CH3C(CH3)2CH3  
 C6H2            C6H5,phenyl     C6H5O,phenoxy   C6H6            C6H5OH,phenol  
 C6H10,cyclo-    C6H12,1-hexene  C6H12,cyclo-    C6H13,n-hexyl   C6H14,n-hexane 
 C7H7,benzyl     C7H8            C7H8O,cresol-mx C7H14,1-heptene C7H15,n-heptyl 
 C7H16,n-heptane C7H16,2-methylh C8H8,styrene    C8H10,ethylbenz C8H16,1-octene 
 C8H17,n-octyl   C8H18,n-octane  C8H18,isooctane C9H19,n-nonyl   C10H8,naphthale
 C10H21,n-decyl  C12H9,o-bipheny C12H10,biphenyl *H              HCN            
 HCO             HCCN            HCCO            HNC             HNCO           
 HNO             HNO2            HNO3            HO2             HCHO,formaldehy
 HCOOH           H2O2            (HCOOH)2        *N              NCO            
 *NH             NH2             NH2OH           *NO             NO2            
 NO3             NCN             N2H2            NH2NO2          N2H4           
 N2O             N2O3            N2O4            N2O5            N3             
 N3H             *O              *OH             *O2             O3             
 H2O(cr)        

 NOTE. WEIGHT FRACTION OF FUEL IN TOTAL FUELS AND OF OXIDANT IN TOTAL OXIDANTS



