
 *******************************************************************************

         NASA-GLENN CHEMICAL EQUILIBRIUM PROGRAM CEA2, MAY 21, 2004
                   BY  BONNIE MCBRIDE AND SANFORD GORDON
      REFS: NASA RP-1311, PART I, 1994 AND NASA RP-1311, PART II, 1996

 *******************************************************************************



 problem   case=asd phi,eq.ratio=0.1,
       rocket  frozen  nfz=1  tcest,k=3800
   p,bar=10,
   pi/p=10.4,
   sup,ae/at=1.,
 react
   oxid=O3 wt=1  t,k=298.15
   fuel=dodecano  wt=1  t,k=298.15
     h,kj/mol=-352  C 12 H 26
 only
   CO CO2 O2
 end

 OPTIONS: TP=F  HP=F  SP=F  TV=F  UV=F  SV=F  DETN=F  SHOCK=F  REFL=F  INCD=F
 RKT=T  FROZ=T  EQL=F  IONS=F  SIUNIT=T  DEBUGF=F  SHKDBG=F  DETDBG=F  TRNSPT=F

 TRACE= 0.00E+00  S/R= 0.000000E+00  H/R= 0.000000E+00  U/R= 0.000000E+00

 Pc,BAR =    10.000000

 Pc/P =    10.4000

 SUBSONIC AREA RATIOS =

 SUPERSONIC AREA RATIOS =     1.0000

 NFZ=  1  Mdot/Ac= 0.000000E+00  Ac/At= 0.000000E+00

    REACTANT          WT.FRAC   (ENERGY/R),K   TEMP,K  DENSITY
        EXPLODED FORMULA
 O: O3               1.000000   0.170545E+05   298.15  0.0000
          O  3.00000
 F: dodecano         1.000000  -0.423356E+05   298.15  0.0000
          C 12.00000  H 26.00000

 PRODUCT SPECIES CONTAINING THE ELEMENT H  MISSING

             FATAL ERROR (SEARCH)
