
 *******************************************************************************

         NASA-GLENN CHEMICAL EQUILIBRIUM PROGRAM CEA2, MAY 21, 2004
                   BY  BONNIE MCBRIDE AND SANFORD GORDON
      REFS: NASA RP-1311, PART I, 1994 AND NASA RP-1311, PART II, 1996

 *******************************************************************************



 problem   case=MMA of=7.5,8,8.5,9,
       rocket  frozen  nfz=2  tcest,k=3800
   p,bar=5,
   pip=5.2083,
  WARNING!!  DID NOT RECOGNIZE of              (INPUT)

 react
   oxid=O2 t,k=298.15
   fuel=C5O2H8
     h,kjmol=-184.5
 output
      siunits massf
     plot %f of phi,eq.ratio r,eq.ratio isp cf
